40

Ni	0.000000	0.000000	0.000000
O	0.000000	1.960874	1.960874
O	1.960874	0.000000	1.960874
O	1.960874	1.960874	0.000000
Pt	1.960874	1.960874	1.960874
Ni	0.000000	0.000000	3.921748
O	0.000000	1.960874	5.882621
O	1.960874	0.000000	5.882621
O	1.960874	1.960874	3.921748
Pt	1.960874	1.960874	5.882621
Ni	0.000000	3.921748	0.000000
O	0.000000	5.882621	1.960874
O	1.960874	3.921748	1.960874
O	1.960874	5.882621	0.000000
Pt	1.960874	5.882621	1.960874
Ni	0.000000	3.921748	3.921748
O	0.000000	5.882621	5.882621
O	1.960874	3.921748	5.882621
O	1.960874	5.882621	3.921748
Pt	1.960874	5.882621	5.882621
Ni	3.921748	0.000000	0.000000
O	3.921748	1.960874	1.960874
O	5.882621	0.000000	1.960874
O	5.882621	1.960874	0.000000
Pt	5.882621	1.960874	1.960874
Ni	3.921748	0.000000	3.921748
O	3.921748	1.960874	5.882621
O	5.882621	0.000000	5.882621
O	5.882621	1.960874	3.921748
Pt	5.882621	1.960874	5.882621
Ni	3.921748	3.921748	0.000000
O	3.921748	5.882621	1.960874
O	5.882621	3.921748	1.960874
O	5.882621	5.882621	0.000000
Pt	5.882621	5.882621	1.960874
Ni	3.921748	3.921748	3.921748
O	3.921748	5.882621	5.882621
O	5.882621	3.921748	5.882621
O	5.882621	5.882621	3.921748
Pt	5.882621	5.882621	5.882621
