40

O	2.128800	2.128800	0.000000
O	2.128800	0.000000	2.128800
O	0.000000	2.128800	2.128800
Tl	2.128800	2.128800	2.128800
Tm	0.000000	0.000000	0.000000
O	2.128800	2.128800	4.257600
O	2.128800	0.000000	6.386400
O	0.000000	2.128800	6.386400
Tl	2.128800	2.128800	6.386400
Tm	0.000000	0.000000	4.257600
O	2.128800	6.386400	0.000000
O	2.128800	4.257600	2.128800
O	0.000000	6.386400	2.128800
Tl	2.128800	6.386400	2.128800
Tm	0.000000	4.257600	0.000000
O	2.128800	6.386400	4.257600
O	2.128800	4.257600	6.386400
O	0.000000	6.386400	6.386400
Tl	2.128800	6.386400	6.386400
Tm	0.000000	4.257600	4.257600
O	6.386400	2.128800	0.000000
O	6.386400	0.000000	2.128800
O	4.257600	2.128800	2.128800
Tl	6.386400	2.128800	2.128800
Tm	4.257600	0.000000	0.000000
O	6.386400	2.128800	4.257600
O	6.386400	0.000000	6.386400
O	4.257600	2.128800	6.386400
Tl	6.386400	2.128800	6.386400
Tm	4.257600	0.000000	4.257600
O	6.386400	6.386400	0.000000
O	6.386400	4.257600	2.128800
O	4.257600	6.386400	2.128800
Tl	6.386400	6.386400	2.128800
Tm	4.257600	4.257600	0.000000
O	6.386400	6.386400	4.257600
O	6.386400	4.257600	6.386400
O	4.257600	6.386400	6.386400
Tl	6.386400	6.386400	6.386400
Tm	4.257600	4.257600	4.257600
