48

Cl	0.000000	0.000000	0.000000
Cs	-3.879290	0.000000	0.000000
O	-0.844216	0.844216	-0.844216
O	-3.035074	3.035074	-0.844216
O	-0.844216	3.035074	-3.035074
O	-3.035074	0.844216	-3.035074
Cl	-3.879290	-3.879290	0.000000
Cs	-7.758581	-3.879290	0.000000
O	-4.723507	-3.035074	-0.844216
O	-6.914364	-0.844216	-0.844216
O	-4.723507	-0.844216	-3.035074
O	-6.914364	-3.035074	-3.035074
Cl	3.879290	0.000000	-3.879290
Cs	0.000000	0.000000	-3.879290
O	3.035074	0.844216	-4.723507
O	0.844216	3.035074	-4.723507
O	3.035074	3.035074	-6.914364
O	0.844216	0.844216	-6.914364
Cl	0.000000	-3.879290	-3.879290
Cs	-3.879290	-3.879290	-3.879290
O	-0.844216	-3.035074	-4.723507
O	-3.035074	-0.844216	-4.723507
O	-0.844216	-0.844216	-6.914364
O	-3.035074	-3.035074	-6.914364
Cl	-3.879290	3.879290	0.000000
Cs	-7.758581	3.879290	0.000000
O	-4.723507	4.723507	-0.844216
O	-6.914364	6.914364	-0.844216
O	-4.723507	6.914364	-3.035074
O	-6.914364	4.723507	-3.035074
Cl	-7.758581	0.000000	0.000000
Cs	-11.637871	0.000000	0.000000
O	-8.602797	0.844216	-0.844216
O	-10.793655	3.035074	-0.844216
O	-8.602797	3.035074	-3.035074
O	-10.793655	0.844216	-3.035074
Cl	0.000000	3.879290	-3.879290
Cs	-3.879290	3.879290	-3.879290
O	-0.844216	4.723507	-4.723507
O	-3.035074	6.914364	-4.723507
O	-0.844216	6.914364	-6.914364
O	-3.035074	4.723507	-6.914364
Cl	-3.879290	0.000000	-3.879290
Cs	-7.758581	0.000000	-3.879290
O	-4.723507	0.844216	-4.723507
O	-6.914364	3.035074	-4.723507
O	-4.723507	3.035074	-6.914364
O	-6.914364	0.844216	-6.914364
