112

Mg	0.922217	0.663777	4.803303
Mg	0.928132	4.569478	-1.607507
W	2.775832	0.004622	1.607890
W	0.927104	2.615383	1.595968
W	-1.852907	2.621045	6.387156
W	-1.850373	2.616216	3.187223
O	-2.674714	3.886803	1.584903
O	-0.051848	3.888527	3.105832
O	-0.050234	3.876491	0.076885
O	2.774580	3.816241	1.599960
O	1.901940	1.352636	3.116460
O	1.907891	1.342104	0.086226
O	-0.920564	1.416563	1.589062
O	4.525756	1.344633	1.604278
Mg	0.919530	0.674266	11.202508
Mg	0.925446	4.579966	4.791698
W	2.773145	0.015111	8.007095
W	0.924418	2.625872	7.995173
W	-1.855593	2.631534	12.786361
W	-1.853059	2.626705	9.586428
O	-2.677400	3.897291	7.984108
O	-0.054534	3.899016	9.505037
O	-0.052920	3.886980	6.476090
O	2.771893	3.826730	7.999165
O	1.899254	1.363125	9.515665
O	1.905205	1.352593	6.485431
O	-0.923250	1.427052	7.988267
O	4.523070	1.355121	8.003483
Mg	-2.776929	5.884768	4.780333
Mg	-2.771014	9.790468	-1.630477
W	-0.923314	5.225613	1.584920
W	-2.772042	7.836374	1.572997
W	-5.552053	7.842036	6.364186
W	-5.549519	7.837207	3.164253
O	-6.373860	9.107793	1.561933
O	-3.750994	9.109518	3.082861
O	-3.749380	9.097482	0.053915
O	-0.924566	9.037232	1.576990
O	-1.797206	6.573627	3.093489
O	-1.791255	6.563095	0.063256
O	-4.619709	6.637554	1.566092
O	0.826611	6.565623	1.581308
Mg	-2.779615	5.895257	11.179538
Mg	-2.773700	9.800957	4.768728
W	-0.926001	5.236101	7.984125
W	-2.774728	7.846863	7.972202
W	-5.554739	7.852525	12.763391
W	-5.552205	7.847695	9.563458
O	-6.376546	9.118282	7.961138
O	-3.753680	9.120007	9.482067
O	-3.752066	9.107971	6.453120
O	-0.927252	9.047721	7.976195
O	-1.799892	6.584116	9.492694
O	-1.793941	6.573584	6.462461
O	-4.622396	6.648043	7.965297
O	0.823924	6.576112	7.980513
Mg	6.476784	0.663677	1.618788
Mg	6.482699	4.569377	-4.792021
W	8.330399	0.004522	-1.576624
W	6.481671	2.615283	-1.588547
W	3.701660	2.620945	3.202642
W	3.704194	2.616116	0.002709
O	2.879853	3.886702	-1.599611
O	5.502719	3.888427	-0.078683
O	5.504333	3.876391	-3.107629
O	8.329147	3.816141	-1.584554
O	7.456507	1.352536	-0.068055
O	7.462458	1.342004	-3.098288
O	4.634003	1.416463	-1.595452
O	10.080323	1.344532	-1.580236
Mg	6.474097	0.674165	8.017994
Mg	6.480013	4.579866	1.607184
W	8.327712	0.015010	4.822581
W	6.478985	2.625771	4.810658
W	3.698974	2.631433	9.601847
W	3.701508	2.626604	6.401914
O	2.877167	3.897191	4.799594
O	5.500033	3.898916	6.320523
O	5.501647	3.886879	3.291576
O	8.326460	3.826630	4.814651
O	7.453821	1.363025	6.331150
O	7.459772	1.352493	3.300917
O	4.631317	1.426951	4.803753
O	10.077637	1.355021	4.818969
Mg	2.777638	5.884667	1.595818
Mg	2.783553	9.790368	-4.814991
W	4.631253	5.225512	-1.599594
W	2.782525	7.836274	-1.611517
W	0.002514	7.841936	3.179672
W	0.005048	7.837106	-0.020261
O	-0.819293	9.107693	-1.622581
O	1.803573	9.109418	-0.101653
O	1.805187	9.097382	-3.130600
O	4.630001	9.037132	-1.607524
O	3.757361	6.573527	-0.091025
O	3.763312	6.562995	-3.121258
O	0.934858	6.637453	-1.618422
O	6.381178	6.565523	-1.603206
Mg	2.774952	5.895156	7.995023
Mg	2.780867	9.800857	1.584214
W	4.628566	5.236001	4.799611
W	2.779839	7.846762	4.787688
W	-0.000172	7.852424	9.578877
W	0.002362	7.847595	6.378944
O	-0.821979	9.118182	4.776624
O	1.800887	9.119907	6.297552
O	1.802501	9.107870	3.268605
O	4.627315	9.047620	4.791681
O	3.754675	6.584016	6.308180
O	3.760626	6.573483	3.277947
O	0.932171	6.647942	4.780783
O	6.378491	6.576012	4.795999
