112

Cr	0.000000	0.000000	0.000000
Cr	2.314638	-2.315479	-2.315479
Hg	-1.157319	-1.157739	-3.473218
Hg	3.471957	1.157739	-1.157739
Hg	5.786594	-1.157739	-1.157739
Hg	1.157319	1.157739	-3.473218
O	3.355859	-1.269532	-1.269532
O	-1.273417	1.269532	-3.361425
O	1.273417	-1.269532	-3.361425
O	1.041221	1.045946	-1.045946
O	5.902692	1.269532	-1.269532
O	1.041221	3.585011	-3.585011
O	3.588054	3.585011	-1.045946
O	3.588054	1.045946	-3.585011
Cr	4.629276	4.630957	0.000000
Cr	6.943913	2.315479	-2.315479
Hg	3.471957	3.473218	-3.473218
Hg	8.101232	5.788696	-1.157739
Hg	10.415870	3.473218	-1.157739
Hg	5.786594	5.788696	-3.473218
O	7.985134	3.361425	-1.269532
O	3.355859	5.900489	-3.361425
O	5.902692	3.361425	-3.361425
O	5.670497	5.676903	-1.045946
O	10.531968	5.900489	-1.269532
O	5.670497	8.215968	-3.585011
O	8.217330	8.215968	-1.045946
O	8.217330	5.676903	-3.585011
Cr	-4.629276	0.000000	-4.630957
Cr	-2.314638	-2.315479	-6.946436
Hg	-5.786594	-1.157739	-8.104175
Hg	-1.157319	1.157739	-5.788696
Hg	1.157319	-1.157739	-5.788696
Hg	-3.471957	1.157739	-8.104175
O	-1.273417	-1.269532	-5.900489
O	-5.902692	1.269532	-7.992382
O	-3.355859	-1.269532	-7.992382
O	-3.588054	1.045946	-5.676903
O	1.273417	1.269532	-5.900489
O	-3.588054	3.585011	-8.215968
O	-1.041221	3.585011	-5.676903
O	-1.041221	1.045946	-8.215968
Cr	0.000000	4.630957	-4.630957
Cr	2.314638	2.315479	-6.946436
Hg	-1.157319	3.473218	-8.104175
Hg	3.471957	5.788696	-5.788696
Hg	5.786594	3.473218	-5.788696
Hg	1.157319	5.788696	-8.104175
O	3.355859	3.361425	-5.900489
O	-1.273417	5.900489	-7.992382
O	1.273417	3.361425	-7.992382
O	1.041221	5.676903	-5.676903
O	5.902692	5.900489	-5.900489
O	1.041221	8.215968	-8.215968
O	3.588054	8.215968	-5.676903
O	3.588054	5.676903	-8.215968
Cr	4.629276	-4.630957	0.000000
Cr	6.943913	-6.946436	-2.315479
Hg	3.471957	-5.788696	-3.473218
Hg	8.101232	-3.473218	-1.157739
Hg	10.415870	-5.788696	-1.157739
Hg	5.786594	-3.473218	-3.473218
O	7.985134	-5.900489	-1.269532
O	3.355859	-3.361425	-3.361425
O	5.902692	-5.900489	-3.361425
O	5.670497	-3.585011	-1.045946
O	10.531968	-3.361425	-1.269532
O	5.670497	-1.045946	-3.585011
O	8.217330	-1.045946	-1.045946
O	8.217330	-3.585011	-3.585011
Cr	9.258551	0.000000	0.000000
Cr	11.573189	-2.315479	-2.315479
Hg	8.101232	-1.157739	-3.473218
Hg	12.730508	1.157739	-1.157739
Hg	15.045145	-1.157739	-1.157739
Hg	10.415870	1.157739	-3.473218
O	12.614410	-1.269532	-1.269532
O	7.985134	1.269532	-3.361425
O	10.531968	-1.269532	-3.361425
O	10.299772	1.045946	-1.045946
O	15.161243	1.269532	-1.269532
O	10.299772	3.585011	-3.585011
O	12.846605	3.585011	-1.045946
O	12.846605	1.045946	-3.585011
Cr	0.000000	-4.630957	-4.630957
Cr	2.314638	-6.946436	-6.946436
Hg	-1.157319	-5.788696	-8.104175
Hg	3.471957	-3.473218	-5.788696
Hg	5.786594	-5.788696	-5.788696
Hg	1.157319	-3.473218	-8.104175
O	3.355859	-5.900489	-5.900489
O	-1.273417	-3.361425	-7.992382
O	1.273417	-5.900489	-7.992382
O	1.041221	-3.585011	-5.676903
O	5.902692	-3.361425	-5.900489
O	1.041221	-1.045946	-8.215968
O	3.588054	-1.045946	-5.676903
O	3.588054	-3.585011	-8.215968
Cr	4.629276	0.000000	-4.630957
Cr	6.943913	-2.315479	-6.946436
Hg	3.471957	-1.157739	-8.104175
Hg	8.101232	1.157739	-5.788696
Hg	10.415870	-1.157739	-5.788696
Hg	5.786594	1.157739	-8.104175
O	7.985134	-1.269532	-5.900489
O	3.355859	1.269532	-7.992382
O	5.902692	-1.269532	-7.992382
O	5.670497	1.045946	-5.676903
O	10.531968	1.269532	-5.900489
O	5.670497	3.585011	-8.215968
O	8.217330	3.585011	-5.676903
O	8.217330	1.045946	-8.215968
