40

Y	2.216105	2.216105	2.216105
Ag	0.000000	0.000000	0.000000
O	2.216105	0.000000	2.216105
O	0.000000	2.216105	2.216105
O	2.216105	2.216105	0.000000
Y	2.216105	2.216105	6.648316
Ag	0.000000	0.000000	4.432210
O	2.216105	0.000000	6.648316
O	0.000000	2.216105	6.648316
O	2.216105	2.216105	4.432210
Y	2.216105	6.648316	2.216105
Ag	0.000000	4.432210	0.000000
O	2.216105	4.432210	2.216105
O	0.000000	6.648316	2.216105
O	2.216105	6.648316	0.000000
Y	2.216105	6.648316	6.648316
Ag	0.000000	4.432210	4.432210
O	2.216105	4.432210	6.648316
O	0.000000	6.648316	6.648316
O	2.216105	6.648316	4.432210
Y	6.648316	2.216105	2.216105
Ag	4.432210	0.000000	0.000000
O	6.648316	0.000000	2.216105
O	4.432210	2.216105	2.216105
O	6.648316	2.216105	0.000000
Y	6.648316	2.216105	6.648316
Ag	4.432210	0.000000	4.432210
O	6.648316	0.000000	6.648316
O	4.432210	2.216105	6.648316
O	6.648316	2.216105	4.432210
Y	6.648316	6.648316	2.216105
Ag	4.432210	4.432210	0.000000
O	6.648316	4.432210	2.216105
O	4.432210	6.648316	2.216105
O	6.648316	6.648316	0.000000
Y	6.648316	6.648316	6.648316
Ag	4.432210	4.432210	4.432210
O	6.648316	4.432210	6.648316
O	4.432210	6.648316	6.648316
O	6.648316	6.648316	4.432210
