40

Au	0.000000	0.000000	0.000000
O	0.000000	1.973492	1.973492
O	1.973492	0.000000	1.973492
O	1.973492	1.973492	0.000000
Ti	1.973492	1.973492	1.973492
Au	0.000000	0.000000	3.946985
O	0.000000	1.973492	5.920477
O	1.973492	0.000000	5.920477
O	1.973492	1.973492	3.946985
Ti	1.973492	1.973492	5.920477
Au	0.000000	3.946985	0.000000
O	0.000000	5.920477	1.973492
O	1.973492	3.946985	1.973492
O	1.973492	5.920477	0.000000
Ti	1.973492	5.920477	1.973492
Au	0.000000	3.946985	3.946985
O	0.000000	5.920477	5.920477
O	1.973492	3.946985	5.920477
O	1.973492	5.920477	3.946985
Ti	1.973492	5.920477	5.920477
Au	3.946985	0.000000	0.000000
O	3.946985	1.973492	1.973492
O	5.920477	0.000000	1.973492
O	5.920477	1.973492	0.000000
Ti	5.920477	1.973492	1.973492
Au	3.946985	0.000000	3.946985
O	3.946985	1.973492	5.920477
O	5.920477	0.000000	5.920477
O	5.920477	1.973492	3.946985
Ti	5.920477	1.973492	5.920477
Au	3.946985	3.946985	0.000000
O	3.946985	5.920477	1.973492
O	5.920477	3.946985	1.973492
O	5.920477	5.920477	0.000000
Ti	5.920477	5.920477	1.973492
Au	3.946985	3.946985	3.946985
O	3.946985	5.920477	5.920477
O	5.920477	3.946985	5.920477
O	5.920477	5.920477	3.946985
Ti	5.920477	5.920477	5.920477
