40

Au	0.000000	0.000000	0.000000
O	1.940850	0.000000	1.940850
O	0.000000	1.940850	1.940850
O	1.940850	1.940850	0.000000
Ti	1.940850	1.940850	1.940850
Au	0.000000	0.000000	3.881703
O	1.940850	0.000000	5.822553
O	0.000000	1.940850	5.822553
O	1.940850	1.940850	3.881703
Ti	1.940850	1.940850	5.822553
Au	0.000000	3.881703	0.000000
O	1.940850	3.881703	1.940850
O	0.000000	5.822553	1.940850
O	1.940850	5.822553	0.000000
Ti	1.940850	5.822553	1.940850
Au	0.000000	3.881703	3.881703
O	1.940850	3.881703	5.822553
O	0.000000	5.822553	5.822553
O	1.940850	5.822553	3.881703
Ti	1.940850	5.822553	5.822553
Au	3.881703	0.000000	0.000000
O	5.822553	0.000000	1.940850
O	3.881703	1.940850	1.940850
O	5.822553	1.940850	0.000000
Ti	5.822553	1.940850	1.940850
Au	3.881703	0.000000	3.881703
O	5.822553	0.000000	5.822553
O	3.881703	1.940850	5.822553
O	5.822553	1.940850	3.881703
Ti	5.822553	1.940850	5.822553
Au	3.881703	3.881703	0.000000
O	5.822553	3.881703	1.940850
O	3.881703	5.822553	1.940850
O	5.822553	5.822553	0.000000
Ti	5.822553	5.822553	1.940850
Au	3.881703	3.881703	3.881703
O	5.822553	3.881703	5.822553
O	3.881703	5.822553	5.822553
O	5.822553	5.822553	3.881703
Ti	5.822553	5.822553	5.822553
