40

Ag	0.000000	0.000000	0.000000
Fe	1.915945	1.915945	1.915945
O	1.915945	1.915945	0.000000
O	1.915945	0.000000	1.915945
O	0.000000	1.915945	1.915945
Ag	0.000000	0.000000	3.831890
Fe	1.915945	1.915945	5.747835
O	1.915945	1.915945	3.831890
O	1.915945	0.000000	5.747835
O	0.000000	1.915945	5.747835
Ag	0.000000	3.831890	0.000000
Fe	1.915945	5.747835	1.915945
O	1.915945	5.747835	0.000000
O	1.915945	3.831890	1.915945
O	0.000000	5.747835	1.915945
Ag	0.000000	3.831890	3.831890
Fe	1.915945	5.747835	5.747835
O	1.915945	5.747835	3.831890
O	1.915945	3.831890	5.747835
O	0.000000	5.747835	5.747835
Ag	3.831890	0.000000	0.000000
Fe	5.747835	1.915945	1.915945
O	5.747835	1.915945	0.000000
O	5.747835	0.000000	1.915945
O	3.831890	1.915945	1.915945
Ag	3.831890	0.000000	3.831890
Fe	5.747835	1.915945	5.747835
O	5.747835	1.915945	3.831890
O	5.747835	0.000000	5.747835
O	3.831890	1.915945	5.747835
Ag	3.831890	3.831890	0.000000
Fe	5.747835	5.747835	1.915945
O	5.747835	5.747835	0.000000
O	5.747835	3.831890	1.915945
O	3.831890	5.747835	1.915945
Ag	3.831890	3.831890	3.831890
Fe	5.747835	5.747835	5.747835
O	5.747835	5.747835	3.831890
O	5.747835	3.831890	5.747835
O	3.831890	5.747835	5.747835
