40

Hg	2.103150	2.103150	2.103150
Nd_3	0.000000	0.000000	0.000000
O	2.103150	2.103150	0.000000
O	0.000000	2.103150	2.103150
O	2.103150	0.000000	2.103150
Hg	2.103150	2.103150	6.309447
Nd_3	0.000000	0.000000	4.206297
O	2.103150	2.103150	4.206297
O	0.000000	2.103150	6.309447
O	2.103150	0.000000	6.309447
Hg	2.103150	6.309447	2.103150
Nd_3	0.000000	4.206297	0.000000
O	2.103150	6.309447	0.000000
O	0.000000	6.309447	2.103150
O	2.103150	4.206297	2.103150
Hg	2.103150	6.309447	6.309447
Nd_3	0.000000	4.206297	4.206297
O	2.103150	6.309447	4.206297
O	0.000000	6.309447	6.309447
O	2.103150	4.206297	6.309447
Hg	6.309447	2.103150	2.103150
Nd_3	4.206297	0.000000	0.000000
O	6.309447	2.103150	0.000000
O	4.206297	2.103150	2.103150
O	6.309447	0.000000	2.103150
Hg	6.309447	2.103150	6.309447
Nd_3	4.206297	0.000000	4.206297
O	6.309447	2.103150	4.206297
O	4.206297	2.103150	6.309447
O	6.309447	0.000000	6.309447
Hg	6.309447	6.309447	2.103150
Nd_3	4.206297	4.206297	0.000000
O	6.309447	6.309447	0.000000
O	4.206297	6.309447	2.103150
O	6.309447	4.206297	2.103150
Hg	6.309447	6.309447	6.309447
Nd_3	4.206297	4.206297	4.206297
O	6.309447	6.309447	4.206297
O	4.206297	6.309447	6.309447
O	6.309447	4.206297	6.309447
