40

Au	0.000000	0.000000	0.000000
F	0.000000	1.948171	1.948171
F	1.948171	0.000000	1.948171
F	1.948171	1.948171	0.000000
O	1.948171	1.948171	1.948171
Au	0.000000	0.000000	3.896342
F	0.000000	1.948171	5.844514
F	1.948171	0.000000	5.844514
F	1.948171	1.948171	3.896342
O	1.948171	1.948171	5.844514
Au	0.000000	3.896342	0.000000
F	0.000000	5.844514	1.948171
F	1.948171	3.896342	1.948171
F	1.948171	5.844514	0.000000
O	1.948171	5.844514	1.948171
Au	0.000000	3.896342	3.896342
F	0.000000	5.844514	5.844514
F	1.948171	3.896342	5.844514
F	1.948171	5.844514	3.896342
O	1.948171	5.844514	5.844514
Au	3.896342	0.000000	0.000000
F	3.896342	1.948171	1.948171
F	5.844514	0.000000	1.948171
F	5.844514	1.948171	0.000000
O	5.844514	1.948171	1.948171
Au	3.896342	0.000000	3.896342
F	3.896342	1.948171	5.844514
F	5.844514	0.000000	5.844514
F	5.844514	1.948171	3.896342
O	5.844514	1.948171	5.844514
Au	3.896342	3.896342	0.000000
F	3.896342	5.844514	1.948171
F	5.844514	3.896342	1.948171
F	5.844514	5.844514	0.000000
O	5.844514	5.844514	1.948171
Au	3.896342	3.896342	3.896342
F	3.896342	5.844514	5.844514
F	5.844514	3.896342	5.844514
F	5.844514	5.844514	3.896342
O	5.844514	5.844514	5.844514
