40

Ir	0.000000	0.000000	0.000000
O	1.954130	0.000000	1.954130
O	0.000000	1.954130	1.954130
O	1.954130	1.954130	0.000000
W	1.954130	1.954130	1.954130
Ir	0.000000	0.000000	3.908263
O	1.954130	0.000000	5.862393
O	0.000000	1.954130	5.862393
O	1.954130	1.954130	3.908263
W	1.954130	1.954130	5.862393
Ir	0.000000	3.908263	0.000000
O	1.954130	3.908263	1.954130
O	0.000000	5.862393	1.954130
O	1.954130	5.862393	0.000000
W	1.954130	5.862393	1.954130
Ir	0.000000	3.908263	3.908263
O	1.954130	3.908263	5.862393
O	0.000000	5.862393	5.862393
O	1.954130	5.862393	3.908263
W	1.954130	5.862393	5.862393
Ir	3.908263	0.000000	0.000000
O	5.862393	0.000000	1.954130
O	3.908263	1.954130	1.954130
O	5.862393	1.954130	0.000000
W	5.862393	1.954130	1.954130
Ir	3.908263	0.000000	3.908263
O	5.862393	0.000000	5.862393
O	3.908263	1.954130	5.862393
O	5.862393	1.954130	3.908263
W	5.862393	1.954130	5.862393
Ir	3.908263	3.908263	0.000000
O	5.862393	3.908263	1.954130
O	3.908263	5.862393	1.954130
O	5.862393	5.862393	0.000000
W	5.862393	5.862393	1.954130
Ir	3.908263	3.908263	3.908263
O	5.862393	3.908263	5.862393
O	3.908263	5.862393	5.862393
O	5.862393	5.862393	3.908263
W	5.862393	5.862393	5.862393
