112

Ca	0.000000	0.000000	0.000000
Ca	2.481422	-2.481813	-2.481813
Nd	-1.240716	-1.240907	-3.722730
Nd	3.722138	1.240907	-1.240907
Nd	6.203561	-1.240907	-1.240907
Nd	1.240716	1.240907	-3.722730
O	-1.142651	1.142378	-3.821249
O	3.820194	-1.142378	-1.142378
O	1.142651	-1.142378	-3.821249
O	1.338771	1.339435	-1.339435
O	6.105505	1.142378	-1.142378
O	1.338771	3.624201	-3.624201
O	3.624083	3.624201	-1.339435
O	3.624083	1.339435	-3.624201
Ca	4.962849	4.963635	0.000000
Ca	7.444271	2.481822	-2.481813
Nd	3.722133	3.722728	-3.722730
Nd	8.684987	6.204542	-1.240907
Nd	11.166410	3.722728	-1.240907
Nd	6.203565	6.204542	-3.722730
O	3.820198	6.106013	-3.821249
O	8.783043	3.821257	-1.142378
O	6.105500	3.821257	-3.821249
O	6.301620	6.303071	-1.339435
O	11.068354	6.106013	-1.142378
O	6.301620	8.587836	-3.624201
O	8.586932	8.587836	-1.339435
O	8.586932	6.303071	-3.624201
Ca	-4.962849	0.000000	-4.963635
Ca	-2.481427	-2.481813	-7.445448
Nd	-6.203565	-1.240907	-8.686365
Nd	-1.240711	1.240907	-6.204542
Nd	1.240712	-1.240907	-6.204542
Nd	-3.722133	1.240907	-8.686365
O	-6.105500	1.142378	-8.784884
O	-1.142655	-1.142378	-6.106013
O	-3.820198	-1.142378	-8.784884
O	-3.624078	1.339435	-6.303071
O	1.142656	1.142378	-6.106013
O	-3.624078	3.624201	-8.587836
O	-1.338766	3.624201	-6.303071
O	-1.338766	1.339435	-8.587836
Ca	0.000000	4.963635	-4.963635
Ca	2.481422	2.481822	-7.445448
Nd	-1.240716	3.722728	-8.686365
Nd	3.722138	6.204542	-6.204542
Nd	6.203561	3.722728	-6.204542
Nd	1.240716	6.204542	-8.686365
O	-1.142651	6.106013	-8.784884
O	3.820194	3.821257	-6.106013
O	1.142651	3.821257	-8.784884
O	1.338771	6.303071	-6.303071
O	6.105505	6.106013	-6.106013
O	1.338771	8.587836	-8.587836
O	3.624083	8.587836	-6.303071
O	3.624083	6.303071	-8.587836
Ca	4.962849	-4.963635	0.000000
Ca	7.444271	-7.445448	-2.481813
Nd	3.722133	-6.204542	-3.722730
Nd	8.684987	-3.722728	-1.240907
Nd	11.166410	-6.204542	-1.240907
Nd	6.203565	-3.722728	-3.722730
O	3.820198	-3.821257	-3.821249
O	8.783043	-6.106013	-1.142378
O	6.105500	-6.106013	-3.821249
O	6.301620	-3.624200	-1.339435
O	11.068354	-3.821257	-1.142378
O	6.301620	-1.339434	-3.624201
O	8.586932	-1.339434	-1.339435
O	8.586932	-3.624200	-3.624201
Ca	9.925698	0.000000	0.000000
Ca	12.407120	-2.481813	-2.481813
Nd	8.684982	-1.240907	-3.722730
Nd	13.647836	1.240907	-1.240907
Nd	16.129259	-1.240907	-1.240907
Nd	11.166414	1.240907	-3.722730
O	8.783047	1.142378	-3.821249
O	13.745892	-1.142378	-1.142378
O	11.068349	-1.142378	-3.821249
O	11.264469	1.339435	-1.339435
O	16.031203	1.142378	-1.142378
O	11.264469	3.624201	-3.624201
O	13.549781	3.624201	-1.339435
O	13.549781	1.339435	-3.624201
Ca	0.000000	-4.963635	-4.963635
Ca	2.481422	-7.445448	-7.445448
Nd	-1.240716	-6.204542	-8.686365
Nd	3.722138	-3.722728	-6.204542
Nd	6.203561	-6.204542	-6.204542
Nd	1.240716	-3.722728	-8.686365
O	-1.142651	-3.821257	-8.784884
O	3.820194	-6.106013	-6.106013
O	1.142651	-6.106013	-8.784884
O	1.338771	-3.624200	-6.303071
O	6.105505	-3.821257	-6.106013
O	1.338771	-1.339434	-8.587836
O	3.624083	-1.339434	-6.303071
O	3.624083	-3.624200	-8.587836
Ca	4.962849	0.000000	-4.963635
Ca	7.444271	-2.481813	-7.445448
Nd	3.722133	-1.240907	-8.686365
Nd	8.684987	1.240907	-6.204542
Nd	11.166410	-1.240907	-6.204542
Nd	6.203565	1.240907	-8.686365
O	3.820198	1.142378	-8.784884
O	8.783043	-1.142378	-6.106013
O	6.105500	-1.142378	-8.784884
O	6.301620	1.339435	-6.303071
O	11.068354	1.142378	-6.106013
O	6.301620	3.624201	-8.587836
O	8.586932	3.624201	-6.303071
O	8.586932	1.339435	-8.587836
