40

Cd	2.033670	2.033670	2.033670
Lu_3	0.000000	0.000000	0.000000
O	2.033670	2.033670	0.000000
O	0.000000	2.033670	2.033670
O	2.033670	0.000000	2.033670
Cd	2.033670	2.033670	6.100992
Lu_3	0.000000	0.000000	4.067322
O	2.033670	2.033670	4.067322
O	0.000000	2.033670	6.100992
O	2.033670	0.000000	6.100992
Cd	2.033670	6.100992	2.033670
Lu_3	0.000000	4.067322	0.000000
O	2.033670	6.100992	0.000000
O	0.000000	6.100992	2.033670
O	2.033670	4.067322	2.033670
Cd	2.033670	6.100992	6.100992
Lu_3	0.000000	4.067322	4.067322
O	2.033670	6.100992	4.067322
O	0.000000	6.100992	6.100992
O	2.033670	4.067322	6.100992
Cd	6.100992	2.033670	2.033670
Lu_3	4.067322	0.000000	0.000000
O	6.100992	2.033670	0.000000
O	4.067322	2.033670	2.033670
O	6.100992	0.000000	2.033670
Cd	6.100992	2.033670	6.100992
Lu_3	4.067322	0.000000	4.067322
O	6.100992	2.033670	4.067322
O	4.067322	2.033670	6.100992
O	6.100992	0.000000	6.100992
Cd	6.100992	6.100992	2.033670
Lu_3	4.067322	4.067322	0.000000
O	6.100992	6.100992	0.000000
O	4.067322	6.100992	2.033670
O	6.100992	4.067322	2.033670
Cd	6.100992	6.100992	6.100992
Lu_3	4.067322	4.067322	4.067322
O	6.100992	6.100992	4.067322
O	4.067322	6.100992	6.100992
O	6.100992	4.067322	6.100992
