40

Cd	0.000000	0.000000	0.000000
Lu	2.095990	2.095990	2.095990
O	2.095990	0.000000	2.095990
O	0.000000	2.095990	2.095990
O	2.095990	2.095990	0.000000
Cd	0.000000	0.000000	4.191974
Lu	2.095990	2.095990	6.287964
O	2.095990	0.000000	6.287964
O	0.000000	2.095990	6.287964
O	2.095990	2.095990	4.191974
Cd	0.000000	4.191974	0.000000
Lu	2.095990	6.287964	2.095990
O	2.095990	4.191974	2.095990
O	0.000000	6.287964	2.095990
O	2.095990	6.287964	0.000000
Cd	0.000000	4.191974	4.191974
Lu	2.095990	6.287964	6.287964
O	2.095990	4.191974	6.287964
O	0.000000	6.287964	6.287964
O	2.095990	6.287964	4.191974
Cd	4.191974	0.000000	0.000000
Lu	6.287964	2.095990	2.095990
O	6.287964	0.000000	2.095990
O	4.191974	2.095990	2.095990
O	6.287964	2.095990	0.000000
Cd	4.191974	0.000000	4.191974
Lu	6.287964	2.095990	6.287964
O	6.287964	0.000000	6.287964
O	4.191974	2.095990	6.287964
O	6.287964	2.095990	4.191974
Cd	4.191974	4.191974	0.000000
Lu	6.287964	6.287964	2.095990
O	6.287964	4.191974	2.095990
O	4.191974	6.287964	2.095990
O	6.287964	6.287964	0.000000
Cd	4.191974	4.191974	4.191974
Lu	6.287964	6.287964	6.287964
O	6.287964	4.191974	6.287964
O	4.191974	6.287964	6.287964
O	6.287964	6.287964	4.191974
