40

O	2.127735	2.127735	0.000000
O	0.000000	2.127735	2.127735
O	2.127735	0.000000	2.127735
Te	2.127735	2.127735	2.127735
U	0.000000	0.000000	0.000000
O	2.127735	2.127735	4.255462
O	0.000000	2.127735	6.383198
O	2.127735	0.000000	6.383198
Te	2.127735	2.127735	6.383198
U	0.000000	0.000000	4.255462
O	2.127735	6.383198	0.000000
O	0.000000	6.383198	2.127735
O	2.127735	4.255462	2.127735
Te	2.127735	6.383198	2.127735
U	0.000000	4.255462	0.000000
O	2.127735	6.383198	4.255462
O	0.000000	6.383198	6.383198
O	2.127735	4.255462	6.383198
Te	2.127735	6.383198	6.383198
U	0.000000	4.255462	4.255462
O	6.383198	2.127735	0.000000
O	4.255462	2.127735	2.127735
O	6.383198	0.000000	2.127735
Te	6.383198	2.127735	2.127735
U	4.255462	0.000000	0.000000
O	6.383198	2.127735	4.255462
O	4.255462	2.127735	6.383198
O	6.383198	0.000000	6.383198
Te	6.383198	2.127735	6.383198
U	4.255462	0.000000	4.255462
O	6.383198	6.383198	0.000000
O	4.255462	6.383198	2.127735
O	6.383198	4.255462	2.127735
Te	6.383198	6.383198	2.127735
U	4.255462	4.255462	0.000000
O	6.383198	6.383198	4.255462
O	4.255462	6.383198	6.383198
O	6.383198	4.255462	6.383198
Te	6.383198	6.383198	6.383198
U	4.255462	4.255462	4.255462
