112

Hf	0.000000	0.000000	0.000000
Hf	2.414889	-2.415385	-2.415385
Nd	-1.207439	-1.207688	-3.623073
Nd	3.622328	1.207688	-1.207688
Nd	1.207439	1.207688	-3.623073
Nd	6.037217	-1.207688	-1.207688
O	1.136064	1.136721	-1.136721
O	-1.278825	1.278654	-3.552106
O	3.550952	-1.278654	-1.278654
O	1.278825	-1.278654	-3.552106
O	1.136064	3.694039	-3.694039
O	3.693704	3.694039	-1.136721
O	3.693704	1.136721	-3.694039
O	6.108593	1.278654	-1.278654
Hf	4.829770	4.830761	0.000000
Hf	7.244659	2.415376	-2.415385
Nd	3.622331	3.623073	-3.623073
Nd	8.452098	6.038448	-1.207688
Nd	6.037210	6.038448	-3.623073
Nd	10.866987	3.623073	-1.207688
O	5.965834	5.967482	-1.136721
O	3.550945	6.109415	-3.552106
O	8.380722	3.552107	-1.278654
O	6.108595	3.552107	-3.552106
O	5.965834	8.524800	-3.694039
O	8.523474	8.524800	-1.136721
O	8.523474	5.967482	-3.694039
O	10.938363	6.109415	-1.278654
Hf	-4.829770	0.000000	-4.830761
Hf	-2.414882	-2.415385	-7.246146
Nd	-6.037210	-1.207688	-8.453833
Nd	-1.207442	1.207688	-6.038448
Nd	-3.622331	1.207688	-8.453833
Nd	1.207447	-1.207688	-6.038448
O	-3.693707	1.136721	-5.967482
O	-6.108595	1.278654	-8.382867
O	-1.278818	-1.278654	-6.109415
O	-3.550945	-1.278654	-8.382867
O	-3.693707	3.694039	-8.524800
O	-1.136066	3.694039	-5.967482
O	-1.136066	1.136721	-8.524800
O	1.278822	1.278654	-6.109415
Hf	0.000000	4.830761	-4.830761
Hf	2.414889	2.415376	-7.246146
Nd	-1.207439	3.623073	-8.453833
Nd	3.622328	6.038448	-6.038448
Nd	1.207439	6.038448	-8.453833
Nd	6.037217	3.623073	-6.038448
O	1.136064	5.967482	-5.967482
O	-1.278825	6.109415	-8.382867
O	3.550952	3.552107	-6.109415
O	1.278825	3.552107	-8.382867
O	1.136064	8.524800	-8.524800
O	3.693704	8.524800	-5.967482
O	3.693704	5.967482	-8.524800
O	6.108593	6.109415	-6.109415
Hf	4.829770	-4.830761	0.000000
Hf	7.244659	-7.246146	-2.415385
Nd	3.622331	-6.038448	-3.623073
Nd	8.452098	-3.623073	-1.207688
Nd	6.037210	-3.623073	-3.623073
Nd	10.866987	-6.038448	-1.207688
O	5.965834	-3.694039	-1.136721
O	3.550945	-3.552107	-3.552106
O	8.380722	-6.109414	-1.278654
O	6.108595	-6.109415	-3.552106
O	5.965834	-1.136722	-3.694039
O	8.523474	-1.136722	-1.136721
O	8.523474	-3.694039	-3.694039
O	10.938363	-3.552107	-1.278654
Hf	9.659541	0.000000	0.000000
Hf	12.074429	-2.415385	-2.415385
Nd	8.452101	-1.207688	-3.623073
Nd	13.281869	1.207688	-1.207688
Nd	10.866980	1.207688	-3.623073
Nd	15.696757	-1.207688	-1.207688
O	10.795604	1.136721	-1.136721
O	8.380715	1.278654	-3.552106
O	13.210493	-1.278654	-1.278654
O	10.938366	-1.278654	-3.552106
O	10.795604	3.694039	-3.694039
O	13.353244	3.694039	-1.136721
O	13.353244	1.136721	-3.694039
O	15.768133	1.278654	-1.278654
Hf	0.000000	-4.830761	-4.830761
Hf	2.414889	-7.246146	-7.246146
Nd	-1.207439	-6.038448	-8.453833
Nd	3.622328	-3.623073	-6.038448
Nd	1.207439	-3.623073	-8.453833
Nd	6.037217	-6.038448	-6.038448
O	1.136064	-3.694039	-5.967482
O	-1.278825	-3.552107	-8.382867
O	3.550952	-6.109414	-6.109415
O	1.278825	-6.109415	-8.382867
O	1.136064	-1.136722	-8.524800
O	3.693704	-1.136722	-5.967482
O	3.693704	-3.694039	-8.524800
O	6.108593	-3.552107	-6.109415
Hf	4.829770	0.000000	-4.830761
Hf	7.244659	-2.415385	-7.246146
Nd	3.622331	-1.207688	-8.453833
Nd	8.452098	1.207688	-6.038448
Nd	6.037210	1.207688	-8.453833
Nd	10.866987	-1.207688	-6.038448
O	5.965834	1.136721	-5.967482
O	3.550945	1.278654	-8.382867
O	8.380722	-1.278654	-6.109415
O	6.108595	-1.278654	-8.382867
O	5.965834	3.694039	-8.524800
O	8.523474	3.694039	-5.967482
O	8.523474	1.136721	-8.524800
O	10.938363	1.278654	-6.109415
