40

Cu	1.935819	1.935819	1.935819
O	1.935819	1.935819	0.000000
O	1.935819	0.000000	1.935819
O	0.000000	1.935819	1.935819
Th	0.000000	0.000000	0.000000
Cu	1.935819	1.935819	5.807458
O	1.935819	1.935819	3.871639
O	1.935819	0.000000	5.807458
O	0.000000	1.935819	5.807458
Th	0.000000	0.000000	3.871639
Cu	1.935819	5.807458	1.935819
O	1.935819	5.807458	0.000000
O	1.935819	3.871639	1.935819
O	0.000000	5.807458	1.935819
Th	0.000000	3.871639	0.000000
Cu	1.935819	5.807458	5.807458
O	1.935819	5.807458	3.871639
O	1.935819	3.871639	5.807458
O	0.000000	5.807458	5.807458
Th	0.000000	3.871639	3.871639
Cu	5.807458	1.935819	1.935819
O	5.807458	1.935819	0.000000
O	5.807458	0.000000	1.935819
O	3.871639	1.935819	1.935819
Th	3.871639	0.000000	0.000000
Cu	5.807458	1.935819	5.807458
O	5.807458	1.935819	3.871639
O	5.807458	0.000000	5.807458
O	3.871639	1.935819	5.807458
Th	3.871639	0.000000	3.871639
Cu	5.807458	5.807458	1.935819
O	5.807458	5.807458	0.000000
O	5.807458	3.871639	1.935819
O	3.871639	5.807458	1.935819
Th	3.871639	3.871639	0.000000
Cu	5.807458	5.807458	5.807458
O	5.807458	5.807458	3.871639
O	5.807458	3.871639	5.807458
O	3.871639	5.807458	5.807458
Th	3.871639	3.871639	3.871639
