40

Be	0.000000	0.000000	0.000000
O	2.135210	0.000000	2.135210
O	0.000000	2.135210	2.135210
O	2.135210	2.135210	0.000000
U	2.135210	2.135210	2.135210
Be	0.000000	0.000000	4.270430
O	2.135210	0.000000	6.405640
O	0.000000	2.135210	6.405640
O	2.135210	2.135210	4.270430
U	2.135210	2.135210	6.405640
Be	0.000000	4.270430	0.000000
O	2.135210	4.270430	2.135210
O	0.000000	6.405640	2.135210
O	2.135210	6.405640	0.000000
U	2.135210	6.405640	2.135210
Be	0.000000	4.270430	4.270430
O	2.135210	4.270430	6.405640
O	0.000000	6.405640	6.405640
O	2.135210	6.405640	4.270430
U	2.135210	6.405640	6.405640
Be	4.270430	0.000000	0.000000
O	6.405640	0.000000	2.135210
O	4.270430	2.135210	2.135210
O	6.405640	2.135210	0.000000
U	6.405640	2.135210	2.135210
Be	4.270430	0.000000	4.270430
O	6.405640	0.000000	6.405640
O	4.270430	2.135210	6.405640
O	6.405640	2.135210	4.270430
U	6.405640	2.135210	6.405640
Be	4.270430	4.270430	0.000000
O	6.405640	4.270430	2.135210
O	4.270430	6.405640	2.135210
O	6.405640	6.405640	0.000000
U	6.405640	6.405640	2.135210
Be	4.270430	4.270430	4.270430
O	6.405640	4.270430	6.405640
O	4.270430	6.405640	6.405640
O	6.405640	6.405640	4.270430
U	6.405640	6.405640	6.405640
