112

Ac	0.000000	0.000000	0.000000
Ac	2.592225	-2.592801	-2.592801
Ce	-1.296113	-1.296401	-3.889202
Ce	3.888338	1.296401	-1.296401
Ce	6.480563	-1.296401	-1.296401
Ce	1.296113	1.296401	-3.889202
O	4.007612	-1.176414	-1.176414
O	-1.176838	1.176414	-4.009189
O	1.176838	-1.176414	-4.009189
O	1.415387	1.416388	-1.416388
O	6.361288	1.176414	-1.176414
O	1.415387	3.769215	-3.769215
O	3.769063	3.769215	-1.416388
O	3.769063	1.416388	-3.769215
Ac	5.184450	5.185602	0.000000
Ac	7.776675	2.592801	-2.592801
Ce	3.888338	3.889202	-3.889202
Ce	9.072788	6.482003	-1.296401
Ce	11.665013	3.889202	-1.296401
Ce	6.480563	6.482003	-3.889202
O	9.192062	4.009189	-1.176414
O	4.007612	6.362016	-4.009189
O	6.361288	4.009189	-4.009189
O	6.599837	6.601990	-1.416388
O	11.545738	6.362016	-1.176414
O	6.599837	8.954817	-3.769215
O	8.953513	8.954817	-1.416388
O	8.953513	6.601990	-3.769215
Ac	-5.184450	0.000000	-5.185602
Ac	-2.592225	-2.592801	-7.778403
Ce	-6.480563	-1.296401	-9.074804
Ce	-1.296113	1.296401	-6.482003
Ce	1.296113	-1.296401	-6.482003
Ce	-3.888338	1.296401	-9.074804
O	-1.176838	-1.176414	-6.362016
O	-6.361288	1.176414	-9.194791
O	-4.007612	-1.176414	-9.194791
O	-3.769063	1.416388	-6.601990
O	1.176838	1.176414	-6.362016
O	-3.769063	3.769215	-8.954817
O	-1.415387	3.769215	-6.601990
O	-1.415387	1.416388	-8.954817
Ac	0.000000	5.185602	-5.185602
Ac	2.592225	2.592801	-7.778403
Ce	-1.296113	3.889202	-9.074804
Ce	3.888338	6.482003	-6.482003
Ce	6.480563	3.889202	-6.482003
Ce	1.296113	6.482003	-9.074804
O	4.007612	4.009189	-6.362016
O	-1.176838	6.362016	-9.194791
O	1.176838	4.009189	-9.194791
O	1.415387	6.601990	-6.601990
O	6.361288	6.362016	-6.362016
O	1.415387	8.954817	-8.954817
O	3.769063	8.954817	-6.601990
O	3.769063	6.601990	-8.954817
Ac	5.184450	-5.185602	0.000000
Ac	7.776675	-7.778403	-2.592801
Ce	3.888338	-6.482003	-3.889202
Ce	9.072788	-3.889202	-1.296401
Ce	11.665013	-6.482003	-1.296401
Ce	6.480563	-3.889202	-3.889202
O	9.192062	-6.362016	-1.176414
O	4.007612	-4.009189	-4.009189
O	6.361288	-6.362016	-4.009189
O	6.599837	-3.769215	-1.416388
O	11.545738	-4.009189	-1.176414
O	6.599837	-1.416388	-3.769215
O	8.953513	-1.416388	-1.416388
O	8.953513	-3.769215	-3.769215
Ac	10.368900	0.000000	0.000000
Ac	12.961125	-2.592801	-2.592801
Ce	9.072788	-1.296401	-3.889202
Ce	14.257238	1.296401	-1.296401
Ce	16.849463	-1.296401	-1.296401
Ce	11.665013	1.296401	-3.889202
O	14.376512	-1.176414	-1.176414
O	9.192062	1.176414	-4.009189
O	11.545738	-1.176414	-4.009189
O	11.784287	1.416388	-1.416388
O	16.730188	1.176414	-1.176414
O	11.784287	3.769215	-3.769215
O	14.137963	3.769215	-1.416388
O	14.137963	1.416388	-3.769215
Ac	0.000000	-5.185602	-5.185602
Ac	2.592225	-7.778403	-7.778403
Ce	-1.296113	-6.482003	-9.074804
Ce	3.888338	-3.889202	-6.482003
Ce	6.480563	-6.482003	-6.482003
Ce	1.296113	-3.889202	-9.074804
O	4.007612	-6.362016	-6.362016
O	-1.176838	-4.009189	-9.194791
O	1.176838	-6.362016	-9.194791
O	1.415387	-3.769215	-6.601990
O	6.361288	-4.009189	-6.362016
O	1.415387	-1.416388	-8.954817
O	3.769063	-1.416388	-6.601990
O	3.769063	-3.769215	-8.954817
Ac	5.184450	0.000000	-5.185602
Ac	7.776675	-2.592801	-7.778403
Ce	3.888338	-1.296401	-9.074804
Ce	9.072788	1.296401	-6.482003
Ce	11.665013	-1.296401	-6.482003
Ce	6.480563	1.296401	-9.074804
O	9.192062	-1.176414	-6.362016
O	4.007612	1.176414	-9.194791
O	6.361288	-1.176414	-9.194791
O	6.599837	1.416388	-6.601990
O	11.545738	1.176414	-6.362016
O	6.599837	3.769215	-8.954817
O	8.953513	3.769215	-6.601990
O	8.953513	1.416388	-8.954817
