112

As	0.000000	0.000000	0.000000
As	2.208626	-2.212477	-2.212477
O	3.235837	-1.184200	-1.184200
O	-1.181414	1.184200	-3.240753
O	1.181415	-1.184200	-3.240753
O	1.027211	1.028276	-1.028276
O	5.598666	1.184200	-1.184200
O	1.027211	3.396677	-3.396677
O	3.390040	3.396677	-1.028276
O	3.390040	1.028276	-3.396677
Pd	-1.104313	-1.106238	-3.318715
Pd	3.312938	1.106238	-1.106238
Pd	5.521564	-1.106238	-1.106238
Pd	1.104313	1.106238	-3.318715
As	4.417251	4.424954	0.000000
As	6.625877	2.212477	-2.212477
O	7.653088	3.240753	-1.184200
O	3.235837	5.609154	-3.240753
O	5.598666	3.240753	-3.240753
O	5.444462	5.453230	-1.028276
O	10.015917	5.609154	-1.184200
O	5.444462	7.821631	-3.396677
O	7.807291	7.821631	-1.028276
O	7.807291	5.453230	-3.396677
Pd	3.312938	3.318715	-3.318715
Pd	7.730190	5.531192	-1.106238
Pd	9.938815	3.318715	-1.106238
Pd	5.521564	5.531192	-3.318715
As	-4.417251	0.000000	-4.424954
As	-2.208626	-2.212477	-6.637431
O	-1.181415	-1.184200	-5.609154
O	-5.598666	1.184200	-7.665707
O	-3.235837	-1.184200	-7.665707
O	-3.390040	1.028276	-5.453230
O	1.181414	1.184200	-5.609154
O	-3.390040	3.396677	-7.821631
O	-1.027211	3.396677	-5.453230
O	-1.027211	1.028276	-7.821631
Pd	-5.521564	-1.106238	-7.743669
Pd	-1.104313	1.106238	-5.531192
Pd	1.104313	-1.106238	-5.531192
Pd	-3.312938	1.106238	-7.743669
As	0.000000	4.424954	-4.424954
As	2.208626	2.212477	-6.637431
O	3.235837	3.240753	-5.609154
O	-1.181414	5.609154	-7.665707
O	1.181415	3.240753	-7.665707
O	1.027211	5.453230	-5.453230
O	5.598666	5.609154	-5.609154
O	1.027211	7.821631	-7.821631
O	3.390040	7.821631	-5.453230
O	3.390040	5.453230	-7.821631
Pd	-1.104313	3.318715	-7.743669
Pd	3.312938	5.531192	-5.531192
Pd	5.521564	3.318715	-5.531192
Pd	1.104313	5.531192	-7.743669
As	4.417251	-4.424954	0.000000
As	6.625877	-6.637431	-2.212477
O	7.653088	-5.609154	-1.184200
O	3.235837	-3.240753	-3.240753
O	5.598666	-5.609154	-3.240753
O	5.444462	-3.396677	-1.028276
O	10.015917	-3.240753	-1.184200
O	5.444462	-1.028276	-3.396677
O	7.807291	-1.028276	-1.028276
O	7.807291	-3.396677	-3.396677
Pd	3.312938	-5.531192	-3.318715
Pd	7.730190	-3.318715	-1.106238
Pd	9.938815	-5.531192	-1.106238
Pd	5.521564	-3.318715	-3.318715
As	8.834503	0.000000	0.000000
As	11.043128	-2.212477	-2.212477
O	12.070339	-1.184200	-1.184200
O	7.653088	1.184200	-3.240753
O	10.015917	-1.184200	-3.240753
O	9.861714	1.028276	-1.028276
O	14.433168	1.184200	-1.184200
O	9.861714	3.396677	-3.396677
O	12.224543	3.396677	-1.028276
O	12.224543	1.028276	-3.396677
Pd	7.730190	-1.106238	-3.318715
Pd	12.147441	1.106238	-1.106238
Pd	14.356067	-1.106238	-1.106238
Pd	9.938815	1.106238	-3.318715
As	0.000000	-4.424954	-4.424954
As	2.208626	-6.637431	-6.637431
O	3.235837	-5.609154	-5.609154
O	-1.181414	-3.240753	-7.665707
O	1.181415	-5.609154	-7.665707
O	1.027211	-3.396677	-5.453230
O	5.598666	-3.240753	-5.609154
O	1.027211	-1.028276	-7.821631
O	3.390040	-1.028276	-5.453230
O	3.390040	-3.396677	-7.821631
Pd	-1.104313	-5.531192	-7.743669
Pd	3.312938	-3.318715	-5.531192
Pd	5.521564	-5.531192	-5.531192
Pd	1.104313	-3.318715	-7.743669
As	4.417251	0.000000	-4.424954
As	6.625877	-2.212477	-6.637431
O	7.653088	-1.184200	-5.609154
O	3.235837	1.184200	-7.665707
O	5.598666	-1.184200	-7.665707
O	5.444462	1.028276	-5.453230
O	10.015917	1.184200	-5.609154
O	5.444462	3.396677	-7.821631
O	7.807291	3.396677	-5.453230
O	7.807291	1.028276	-7.821631
Pd	3.312938	-1.106238	-7.743669
Pd	7.730190	1.106238	-5.531192
Pd	9.938815	-1.106238	-5.531192
Pd	5.521564	1.106238	-7.743669
