112

Lu	0.000000	0.000000	0.000000
Lu	2.501535	-2.501824	-2.501824
O	3.731749	-1.271099	-1.271099
O	-1.271322	1.271099	-3.732548
O	1.271322	-1.271099	-3.732548
O	1.230213	1.230724	-1.230724
O	6.274392	1.271099	-1.271099
O	1.230214	3.772923	-3.772923
O	3.772857	3.772923	-1.230724
O	3.772857	1.230724	-3.772923
Sr	-1.250768	-1.250912	-3.752735
Sr	3.752303	1.250912	-1.250912
Sr	6.253838	-1.250912	-1.250912
Sr	1.250768	1.250912	-3.752735
Lu	5.003071	5.003647	0.000000
Lu	7.504606	2.501824	-2.501824
O	8.734819	3.732548	-1.271099
O	3.731749	6.274747	-3.732548
O	6.274392	3.732548	-3.732548
O	6.233284	6.234371	-1.230724
O	11.277463	6.274747	-1.271099
O	6.233284	8.776570	-3.772923
O	8.775928	8.776570	-1.230724
O	8.775928	6.234371	-3.772923
Sr	3.752303	3.752735	-3.752735
Sr	8.755373	6.254559	-1.250912
Sr	11.256909	3.752735	-1.250912
Sr	6.253838	6.254559	-3.752735
Lu	-5.003071	0.000000	-5.003647
Lu	-2.501535	-2.501824	-7.505471
O	-1.271322	-1.271099	-6.274746
O	-6.274392	1.271099	-8.736195
O	-3.731749	-1.271099	-8.736195
O	-3.772857	1.230724	-6.234372
O	1.271322	1.271099	-6.274746
O	-3.772857	3.772923	-8.776570
O	-1.230214	3.772923	-6.234372
O	-1.230213	1.230724	-8.776570
Sr	-6.253838	-1.250912	-8.756383
Sr	-1.250768	1.250912	-6.254559
Sr	1.250768	-1.250912	-6.254559
Sr	-3.752303	1.250912	-8.756383
Lu	0.000000	5.003647	-5.003647
Lu	2.501535	2.501824	-7.505471
O	3.731749	3.732548	-6.274746
O	-1.271322	6.274747	-8.736195
O	1.271322	3.732548	-8.736195
O	1.230213	6.234371	-6.234372
O	6.274392	6.274747	-6.274746
O	1.230214	8.776570	-8.776570
O	3.772857	8.776570	-6.234372
O	3.772857	6.234371	-8.776570
Sr	-1.250768	3.752735	-8.756383
Sr	3.752303	6.254559	-6.254559
Sr	6.253838	3.752735	-6.254559
Sr	1.250768	6.254559	-8.756383
Lu	5.003071	-5.003647	0.000000
Lu	7.504606	-7.505471	-2.501824
O	8.734819	-6.274746	-1.271099
O	3.731749	-3.732548	-3.732548
O	6.274392	-6.274746	-3.732548
O	6.233284	-3.772923	-1.230724
O	11.277463	-3.732548	-1.271099
O	6.233284	-1.230724	-3.772923
O	8.775928	-1.230724	-1.230724
O	8.775928	-3.772923	-3.772923
Sr	3.752303	-6.254559	-3.752735
Sr	8.755373	-3.752735	-1.250912
Sr	11.256909	-6.254559	-1.250912
Sr	6.253838	-3.752735	-3.752735
Lu	10.006141	0.000000	0.000000
Lu	12.507676	-2.501824	-2.501824
O	13.737890	-1.271099	-1.271099
O	8.734819	1.271099	-3.732548
O	11.277463	-1.271099	-3.732548
O	11.236355	1.230724	-1.230724
O	16.280533	1.271099	-1.271099
O	11.236355	3.772923	-3.772923
O	13.778998	3.772923	-1.230724
O	13.778998	1.230724	-3.772923
Sr	8.755373	-1.250912	-3.752735
Sr	13.758444	1.250912	-1.250912
Sr	16.259979	-1.250912	-1.250912
Sr	11.256909	1.250912	-3.752735
Lu	0.000000	-5.003647	-5.003647
Lu	2.501535	-7.505471	-7.505471
O	3.731749	-6.274746	-6.274746
O	-1.271322	-3.732548	-8.736195
O	1.271322	-6.274746	-8.736195
O	1.230213	-3.772923	-6.234372
O	6.274392	-3.732548	-6.274746
O	1.230214	-1.230724	-8.776570
O	3.772857	-1.230724	-6.234372
O	3.772857	-3.772923	-8.776570
Sr	-1.250768	-6.254559	-8.756383
Sr	3.752303	-3.752735	-6.254559
Sr	6.253838	-6.254559	-6.254559
Sr	1.250768	-3.752735	-8.756383
Lu	5.003071	0.000000	-5.003647
Lu	7.504606	-2.501824	-7.505471
O	8.734819	-1.271099	-6.274746
O	3.731749	1.271099	-8.736195
O	6.274392	-1.271099	-8.736195
O	6.233284	1.230724	-6.234372
O	11.277463	1.271099	-6.274746
O	6.233284	3.772923	-8.776570
O	8.775928	3.772923	-6.234372
O	8.775928	1.230724	-8.776570
Sr	3.752303	-1.250912	-8.756383
Sr	8.755373	1.250912	-6.254559
Sr	11.256909	-1.250912	-6.254559
Sr	6.253838	1.250912	-8.756383
