40

N	0.000000	0.000000	0.000000
O	0.000000	1.965646	1.965646
O	1.965646	0.000000	1.965646
O	1.965646	1.965646	0.000000
Ti	1.965646	1.965646	1.965646
N	0.000000	0.000000	3.931291
O	0.000000	1.965646	5.896937
O	1.965646	0.000000	5.896937
O	1.965646	1.965646	3.931291
Ti	1.965646	1.965646	5.896937
N	0.000000	3.931291	0.000000
O	0.000000	5.896937	1.965646
O	1.965646	3.931291	1.965646
O	1.965646	5.896937	0.000000
Ti	1.965646	5.896937	1.965646
N	0.000000	3.931291	3.931291
O	0.000000	5.896937	5.896937
O	1.965646	3.931291	5.896937
O	1.965646	5.896937	3.931291
Ti	1.965646	5.896937	5.896937
N	3.931291	0.000000	0.000000
O	3.931291	1.965646	1.965646
O	5.896937	0.000000	1.965646
O	5.896937	1.965646	0.000000
Ti	5.896937	1.965646	1.965646
N	3.931291	0.000000	3.931291
O	3.931291	1.965646	5.896937
O	5.896937	0.000000	5.896937
O	5.896937	1.965646	3.931291
Ti	5.896937	1.965646	5.896937
N	3.931291	3.931291	0.000000
O	3.931291	5.896937	1.965646
O	5.896937	3.931291	1.965646
O	5.896937	5.896937	0.000000
Ti	5.896937	5.896937	1.965646
N	3.931291	3.931291	3.931291
O	3.931291	5.896937	5.896937
O	5.896937	3.931291	5.896937
O	5.896937	5.896937	3.931291
Ti	5.896937	5.896937	5.896937
