112

Au	0.000000	0.000000	0.000000
Au	2.435065	-2.435253	-2.435253
O	3.807364	-1.062189	-1.062189
O	-1.062766	1.062189	-3.808317
O	1.062766	-1.062189	-3.808317
O	1.372299	1.373064	-1.373064
O	5.932896	1.062189	-1.062189
O	1.372299	3.497442	-3.497442
O	3.497831	3.497442	-1.373064
O	3.497831	1.373064	-3.497442
Pb	-1.217533	-1.217627	-3.652880
Pb	3.652598	1.217627	-1.217627
Pb	6.087663	-1.217627	-1.217627
Pb	1.217533	1.217627	-3.652880
Au	4.870130	4.870506	0.000000
Au	7.305195	2.435253	-2.435253
O	8.677494	3.808317	-1.062189
O	3.807364	5.932695	-3.808317
O	5.932896	3.808317	-3.808317
O	6.242429	6.243570	-1.373064
O	10.803027	5.932695	-1.062189
O	6.242429	8.367949	-3.497442
O	8.367961	8.367949	-1.373064
O	8.367961	6.243570	-3.497442
Pb	3.652598	3.652880	-3.652880
Pb	8.522728	6.088133	-1.217627
Pb	10.957793	3.652880	-1.217627
Pb	6.087663	6.088133	-3.652880
Au	-4.870130	0.000000	-4.870506
Au	-2.435065	-2.435253	-7.305759
O	-1.062766	-1.062189	-5.932695
O	-5.932896	1.062189	-8.678823
O	-3.807364	-1.062189	-8.678823
O	-3.497831	1.373064	-6.243570
O	1.062766	1.062189	-5.932695
O	-3.497831	3.497442	-8.367949
O	-1.372299	3.497442	-6.243570
O	-1.372299	1.373064	-8.367949
Pb	-6.087663	-1.217627	-8.523386
Pb	-1.217533	1.217627	-6.088133
Pb	1.217533	-1.217627	-6.088133
Pb	-3.652598	1.217627	-8.523386
Au	0.000000	4.870506	-4.870506
Au	2.435065	2.435253	-7.305759
O	3.807364	3.808317	-5.932695
O	-1.062766	5.932695	-8.678823
O	1.062766	3.808317	-8.678823
O	1.372299	6.243570	-6.243570
O	5.932896	5.932695	-5.932695
O	1.372299	8.367949	-8.367949
O	3.497831	8.367949	-6.243570
O	3.497831	6.243570	-8.367949
Pb	-1.217533	3.652880	-8.523386
Pb	3.652598	6.088133	-6.088133
Pb	6.087663	3.652880	-6.088133
Pb	1.217533	6.088133	-8.523386
Au	4.870130	-4.870506	0.000000
Au	7.305195	-7.305759	-2.435253
O	8.677494	-5.932695	-1.062189
O	3.807364	-3.808317	-3.808317
O	5.932896	-5.932695	-3.808317
O	6.242429	-3.497442	-1.373064
O	10.803027	-3.808317	-1.062189
O	6.242429	-1.373064	-3.497442
O	8.367961	-1.373064	-1.373064
O	8.367961	-3.497442	-3.497442
Pb	3.652598	-6.088133	-3.652880
Pb	8.522728	-3.652880	-1.217627
Pb	10.957793	-6.088133	-1.217627
Pb	6.087663	-3.652880	-3.652880
Au	9.740260	0.000000	0.000000
Au	12.175325	-2.435253	-2.435253
O	13.547624	-1.062189	-1.062189
O	8.677494	1.062189	-3.808317
O	10.803027	-1.062189	-3.808317
O	11.112559	1.373064	-1.373064
O	15.673157	1.062189	-1.062189
O	11.112559	3.497442	-3.497442
O	13.238092	3.497442	-1.373064
O	13.238092	1.373064	-3.497442
Pb	8.522728	-1.217627	-3.652880
Pb	13.392858	1.217627	-1.217627
Pb	15.827923	-1.217627	-1.217627
Pb	10.957793	1.217627	-3.652880
Au	0.000000	-4.870506	-4.870506
Au	2.435065	-7.305759	-7.305759
O	3.807364	-5.932695	-5.932695
O	-1.062766	-3.808317	-8.678823
O	1.062766	-5.932695	-8.678823
O	1.372299	-3.497442	-6.243570
O	5.932896	-3.808317	-5.932695
O	1.372299	-1.373064	-8.367949
O	3.497831	-1.373064	-6.243570
O	3.497831	-3.497442	-8.367949
Pb	-1.217533	-6.088133	-8.523386
Pb	3.652598	-3.652880	-6.088133
Pb	6.087663	-6.088133	-6.088133
Pb	1.217533	-3.652880	-8.523386
Au	4.870130	0.000000	-4.870506
Au	7.305195	-2.435253	-7.305759
O	8.677494	-1.062189	-5.932695
O	3.807364	1.062189	-8.678823
O	5.932896	-1.062189	-8.678823
O	6.242429	1.373064	-6.243570
O	10.803027	1.062189	-5.932695
O	6.242429	3.497442	-8.367949
O	8.367961	3.497442	-6.243570
O	8.367961	1.373064	-8.367949
Pb	3.652598	-1.217627	-8.523386
Pb	8.522728	1.217627	-6.088133
Pb	10.957793	-1.217627	-6.088133
Pb	6.087663	1.217627	-8.523386
