112

Eu	0.000000	0.000000	0.000000
Eu	2.451637	-2.450964	-2.450964
Na	-1.225819	-1.225482	-3.676446
Na	3.677456	1.225482	-1.225482
Na	6.129093	-1.225482	-1.225482
Na	1.225819	1.225482	-3.676446
O	3.762362	-1.139813	-1.139813
O	-1.140912	1.139813	-3.762114
O	1.140912	-1.139813	-3.762114
O	1.310725	1.311150	-1.311150
O	6.044186	1.139813	-1.139813
O	1.310725	3.590777	-3.590777
O	3.592549	3.590777	-1.311150
O	3.592549	1.311150	-3.590777
Eu	4.903274	4.901927	0.000000
Eu	7.354911	2.450964	-2.450964
Na	3.677456	3.676446	-3.676446
Na	8.580730	6.127409	-1.225482
Na	11.032367	3.676446	-1.225482
Na	6.129093	6.127409	-3.676446
O	8.665636	3.762114	-1.139813
O	3.762362	6.041741	-3.762114
O	6.044186	3.762114	-3.762114
O	6.213999	6.213078	-1.311150
O	10.947460	6.041741	-1.139813
O	6.213999	8.492705	-3.590777
O	8.495823	8.492705	-1.311150
O	8.495823	6.213078	-3.590777
Eu	-4.903274	0.000000	-4.901927
Eu	-2.451637	-2.450964	-7.352891
Na	-6.129093	-1.225482	-8.578373
Na	-1.225819	1.225482	-6.127409
Na	1.225819	-1.225482	-6.127409
Na	-3.677456	1.225482	-8.578373
O	-1.140912	-1.139813	-6.041741
O	-6.044186	1.139813	-8.664042
O	-3.762362	-1.139813	-8.664042
O	-3.592549	1.311150	-6.213078
O	1.140912	1.139813	-6.041741
O	-3.592549	3.590777	-8.492705
O	-1.310725	3.590777	-6.213078
O	-1.310725	1.311150	-8.492705
Eu	0.000000	4.901927	-4.901927
Eu	2.451637	2.450964	-7.352891
Na	-1.225819	3.676446	-8.578373
Na	3.677456	6.127409	-6.127409
Na	6.129093	3.676446	-6.127409
Na	1.225819	6.127409	-8.578373
O	3.762362	3.762114	-6.041741
O	-1.140912	6.041741	-8.664042
O	1.140912	3.762114	-8.664042
O	1.310725	6.213078	-6.213078
O	6.044186	6.041741	-6.041741
O	1.310725	8.492705	-8.492705
O	3.592549	8.492705	-6.213078
O	3.592549	6.213078	-8.492705
Eu	4.903274	-4.901927	0.000000
Eu	7.354911	-7.352891	-2.450964
Na	3.677456	-6.127409	-3.676446
Na	8.580730	-3.676446	-1.225482
Na	11.032367	-6.127409	-1.225482
Na	6.129093	-3.676446	-3.676446
O	8.665636	-6.041741	-1.139813
O	3.762362	-3.762114	-3.762114
O	6.044186	-6.041741	-3.762114
O	6.213999	-3.590777	-1.311150
O	10.947460	-3.762114	-1.139813
O	6.213999	-1.311150	-3.590777
O	8.495823	-1.311150	-1.311150
O	8.495823	-3.590777	-3.590777
Eu	9.806548	0.000000	0.000000
Eu	12.258185	-2.450964	-2.450964
Na	8.580730	-1.225482	-3.676446
Na	13.484004	1.225482	-1.225482
Na	15.935641	-1.225482	-1.225482
Na	11.032367	1.225482	-3.676446
O	13.568910	-1.139813	-1.139813
O	8.665636	1.139813	-3.762114
O	10.947460	-1.139813	-3.762114
O	11.117273	1.311150	-1.311150
O	15.850734	1.139813	-1.139813
O	11.117273	3.590777	-3.590777
O	13.399097	3.590777	-1.311150
O	13.399097	1.311150	-3.590777
Eu	0.000000	-4.901927	-4.901927
Eu	2.451637	-7.352891	-7.352891
Na	-1.225819	-6.127409	-8.578373
Na	3.677456	-3.676446	-6.127409
Na	6.129093	-6.127409	-6.127409
Na	1.225819	-3.676446	-8.578373
O	3.762362	-6.041741	-6.041741
O	-1.140912	-3.762114	-8.664042
O	1.140912	-6.041741	-8.664042
O	1.310725	-3.590777	-6.213078
O	6.044186	-3.762114	-6.041741
O	1.310725	-1.311150	-8.492705
O	3.592549	-1.311150	-6.213078
O	3.592549	-3.590777	-8.492705
Eu	4.903274	0.000000	-4.901927
Eu	7.354911	-2.450964	-7.352891
Na	3.677456	-1.225482	-8.578373
Na	8.580730	1.225482	-6.127409
Na	11.032367	-1.225482	-6.127409
Na	6.129093	1.225482	-8.578373
O	8.665636	-1.139813	-6.041741
O	3.762362	1.139813	-8.664042
O	6.044186	-1.139813	-8.664042
O	6.213999	1.311150	-6.213078
O	10.947460	1.139813	-6.041741
O	6.213999	3.590777	-8.492705
O	8.495823	3.590777	-6.213078
O	8.495823	1.311150	-8.492705
