112

Eu	0.000000	0.000000	0.000000
Eu	2.515190	-2.515981	-2.515981
Nd	-1.257595	-1.257990	-3.773971
Nd	3.772785	1.257990	-1.257990
Nd	6.287976	-1.257990	-1.257990
Nd	1.257595	1.257990	-3.773971
O	3.893838	-1.136353	-1.136353
O	-1.136542	1.136353	-3.895608
O	1.136542	-1.136353	-3.895608
O	1.378648	1.379627	-1.379627
O	6.166923	1.136353	-1.136353
O	1.378648	3.652334	-3.652334
O	3.651733	3.652334	-1.379627
O	3.651733	1.379627	-3.652334
Eu	5.030381	5.031961	0.000000
Eu	7.545571	2.515981	-2.515981
Nd	3.772785	3.773971	-3.773971
Nd	8.803166	6.289952	-1.257990
Nd	11.318356	3.773971	-1.257990
Nd	6.287976	6.289952	-3.773971
O	8.924219	3.895608	-1.136353
O	3.893838	6.168315	-3.895608
O	6.166923	3.895608	-3.895608
O	6.409028	6.411589	-1.379627
O	11.197304	6.168315	-1.136353
O	6.409028	8.684295	-3.652334
O	8.682113	8.684295	-1.379627
O	8.682113	6.411589	-3.652334
Eu	-5.030381	0.000000	-5.031961
Eu	-2.515190	-2.515981	-7.547942
Nd	-6.287976	-1.257990	-8.805933
Nd	-1.257595	1.257990	-6.289952
Nd	1.257595	-1.257990	-6.289952
Nd	-3.772785	1.257990	-8.805933
O	-1.136542	-1.136353	-6.168315
O	-6.166923	1.136353	-8.927570
O	-3.893838	-1.136353	-8.927570
O	-3.651733	1.379627	-6.411589
O	1.136542	1.136353	-6.168315
O	-3.651733	3.652334	-8.684295
O	-1.378648	3.652334	-6.411589
O	-1.378648	1.379627	-8.684295
Eu	0.000000	5.031961	-5.031961
Eu	2.515190	2.515981	-7.547942
Nd	-1.257595	3.773971	-8.805933
Nd	3.772785	6.289952	-6.289952
Nd	6.287976	3.773971	-6.289952
Nd	1.257595	6.289952	-8.805933
O	3.893838	3.895608	-6.168315
O	-1.136542	6.168315	-8.927570
O	1.136542	3.895608	-8.927570
O	1.378648	6.411589	-6.411589
O	6.166923	6.168315	-6.168315
O	1.378648	8.684295	-8.684295
O	3.651733	8.684295	-6.411589
O	3.651733	6.411589	-8.684295
Eu	5.030381	-5.031961	0.000000
Eu	7.545571	-7.547942	-2.515981
Nd	3.772785	-6.289952	-3.773971
Nd	8.803166	-3.773971	-1.257990
Nd	11.318356	-6.289952	-1.257990
Nd	6.287976	-3.773971	-3.773971
O	8.924219	-6.168315	-1.136353
O	3.893838	-3.895608	-3.895608
O	6.166923	-6.168315	-3.895608
O	6.409028	-3.652334	-1.379627
O	11.197304	-3.895608	-1.136353
O	6.409028	-1.379627	-3.652334
O	8.682113	-1.379627	-1.379627
O	8.682113	-3.652334	-3.652334
Eu	10.060761	0.000000	0.000000
Eu	12.575951	-2.515981	-2.515981
Nd	8.803166	-1.257990	-3.773971
Nd	13.833546	1.257990	-1.257990
Nd	16.348737	-1.257990	-1.257990
Nd	11.318356	1.257990	-3.773971
O	13.954599	-1.136353	-1.136353
O	8.924219	1.136353	-3.895608
O	11.197303	-1.136353	-3.895608
O	11.439409	1.379627	-1.379627
O	16.227684	1.136353	-1.136353
O	11.439409	3.652334	-3.652334
O	13.712494	3.652334	-1.379627
O	13.712494	1.379627	-3.652334
Eu	0.000000	-5.031961	-5.031961
Eu	2.515190	-7.547942	-7.547942
Nd	-1.257595	-6.289952	-8.805933
Nd	3.772785	-3.773971	-6.289952
Nd	6.287976	-6.289952	-6.289952
Nd	1.257595	-3.773971	-8.805933
O	3.893838	-6.168315	-6.168315
O	-1.136542	-3.895608	-8.927570
O	1.136542	-6.168315	-8.927570
O	1.378648	-3.652334	-6.411589
O	6.166923	-3.895608	-6.168315
O	1.378648	-1.379627	-8.684295
O	3.651733	-1.379627	-6.411589
O	3.651733	-3.652334	-8.684295
Eu	5.030381	0.000000	-5.031961
Eu	7.545571	-2.515981	-7.547942
Nd	3.772785	-1.257990	-8.805933
Nd	8.803166	1.257990	-6.289952
Nd	11.318356	-1.257990	-6.289952
Nd	6.287976	1.257990	-8.805933
O	8.924219	-1.136353	-6.168315
O	3.893838	1.136353	-8.927570
O	6.166923	-1.136353	-8.927570
O	6.409028	1.379627	-6.411589
O	11.197304	1.136353	-6.168315
O	6.409028	3.652334	-8.684295
O	8.682113	3.652334	-6.411589
O	8.682113	1.379627	-8.684295
