40

Ho	0.000000	0.000000	0.000000
O	2.180514	2.180514	0.000000
O	2.180514	0.000000	2.180514
O	0.000000	2.180514	2.180514
Pu	2.180514	2.180514	2.180514
Ho	0.000000	0.000000	4.361020
O	2.180514	2.180514	4.361020
O	2.180514	0.000000	6.541534
O	0.000000	2.180514	6.541534
Pu	2.180514	2.180514	6.541534
Ho	0.000000	4.361020	0.000000
O	2.180514	6.541534	0.000000
O	2.180514	4.361020	2.180514
O	0.000000	6.541534	2.180514
Pu	2.180514	6.541534	2.180514
Ho	0.000000	4.361020	4.361020
O	2.180514	6.541534	4.361020
O	2.180514	4.361020	6.541534
O	0.000000	6.541534	6.541534
Pu	2.180514	6.541534	6.541534
Ho	4.361020	0.000000	0.000000
O	6.541534	2.180514	0.000000
O	6.541534	0.000000	2.180514
O	4.361020	2.180514	2.180514
Pu	6.541534	2.180514	2.180514
Ho	4.361020	0.000000	4.361020
O	6.541534	2.180514	4.361020
O	6.541534	0.000000	6.541534
O	4.361020	2.180514	6.541534
Pu	6.541534	2.180514	6.541534
Ho	4.361020	4.361020	0.000000
O	6.541534	6.541534	0.000000
O	6.541534	4.361020	2.180514
O	4.361020	6.541534	2.180514
Pu	6.541534	6.541534	2.180514
Ho	4.361020	4.361020	4.361020
O	6.541534	6.541534	4.361020
O	6.541534	4.361020	6.541534
O	4.361020	6.541534	6.541534
Pu	6.541534	6.541534	6.541534
