40

O	1.947846	1.947846	0.000000
O	0.000000	1.947846	1.947846
O	1.947846	0.000000	1.947846
Ru	1.947846	1.947846	1.947846
Th	0.000000	0.000000	0.000000
O	1.947846	1.947846	3.895699
O	0.000000	1.947846	5.843545
O	1.947846	0.000000	5.843545
Ru	1.947846	1.947846	5.843545
Th	0.000000	0.000000	3.895699
O	1.947846	5.843545	0.000000
O	0.000000	5.843545	1.947846
O	1.947846	3.895699	1.947846
Ru	1.947846	5.843545	1.947846
Th	0.000000	3.895699	0.000000
O	1.947846	5.843545	3.895699
O	0.000000	5.843545	5.843545
O	1.947846	3.895699	5.843545
Ru	1.947846	5.843545	5.843545
Th	0.000000	3.895699	3.895699
O	5.843545	1.947846	0.000000
O	3.895699	1.947846	1.947846
O	5.843545	0.000000	1.947846
Ru	5.843545	1.947846	1.947846
Th	3.895699	0.000000	0.000000
O	5.843545	1.947846	3.895699
O	3.895699	1.947846	5.843545
O	5.843545	0.000000	5.843545
Ru	5.843545	1.947846	5.843545
Th	3.895699	0.000000	3.895699
O	5.843545	5.843545	0.000000
O	3.895699	5.843545	1.947846
O	5.843545	3.895699	1.947846
Ru	5.843545	5.843545	1.947846
Th	3.895699	3.895699	0.000000
O	5.843545	5.843545	3.895699
O	3.895699	5.843545	5.843545
O	5.843545	3.895699	5.843545
Ru	5.843545	5.843545	5.843545
Th	3.895699	3.895699	3.895699
