112

Hf	0.000000	0.000000	0.000000
Hf	2.424839	-2.425025	-2.425025
O	1.131764	1.132311	-1.132311
O	-1.293065	1.292714	-3.557336
O	3.556602	-1.292714	-1.292714
O	1.293065	-1.292714	-3.557336
O	1.131764	3.717749	-3.717749
O	3.717904	3.717749	-1.132311
O	3.717904	1.132311	-3.717749
O	6.142732	1.292714	-1.292714
Sb	-1.212419	-1.212518	-3.637543
Sb	6.062087	-1.212518	-1.212518
Sb	3.637248	1.212518	-1.212518
Sb	1.212419	1.212518	-3.637543
Hf	4.849669	4.850058	0.000000
Hf	7.274507	2.425033	-2.425025
O	5.981432	5.982369	-1.132311
O	3.556604	6.142773	-3.557336
O	8.406271	3.557344	-1.292714
O	6.142734	3.557344	-3.557336
O	5.981432	8.567808	-3.717749
O	8.567572	8.567808	-1.132311
O	8.567572	5.982369	-3.717749
O	10.992401	6.142773	-1.292714
Sb	3.637249	3.637541	-3.637543
Sb	10.911755	3.637541	-1.212518
Sb	8.486917	6.062576	-1.212518
Sb	6.062088	6.062576	-3.637543
Hf	-4.849669	0.000000	-4.850058
Hf	-2.424830	-2.425025	-7.275084
O	-3.717905	1.132311	-5.982369
O	-6.142734	1.292714	-8.407395
O	-1.293066	-1.292714	-6.142773
O	-3.556604	-1.292714	-8.407395
O	-3.717905	3.717749	-8.567808
O	-1.131765	3.717749	-5.982369
O	-1.131765	1.132311	-8.567808
O	1.293064	1.292714	-6.142773
Sb	-6.062088	-1.212518	-8.487601
Sb	1.212418	-1.212518	-6.062576
Sb	-1.212421	1.212518	-6.062576
Sb	-3.637249	1.212518	-8.487601
Hf	0.000000	4.850058	-4.850058
Hf	2.424839	2.425033	-7.275084
O	1.131764	5.982369	-5.982369
O	-1.293065	6.142773	-8.407395
O	3.556602	3.557344	-6.142773
O	1.293065	3.557344	-8.407395
O	1.131764	8.567808	-8.567808
O	3.717904	8.567808	-5.982369
O	3.717904	5.982369	-8.567808
O	6.142732	6.142773	-6.142773
Sb	-1.212419	3.637541	-8.487601
Sb	6.062087	3.637541	-6.062576
Sb	3.637248	6.062576	-6.062576
Sb	1.212419	6.062576	-8.487601
Hf	4.849669	-4.850058	0.000000
Hf	7.274507	-7.275084	-2.425025
O	5.981432	-3.717747	-1.132311
O	3.556604	-3.557344	-3.557336
O	8.406271	-6.142773	-1.292714
O	6.142734	-6.142772	-3.557336
O	5.981432	-1.132309	-3.717749
O	8.567572	-1.132309	-1.132311
O	8.567572	-3.717747	-3.717749
O	10.992401	-3.557344	-1.292714
Sb	3.637249	-6.062576	-3.637543
Sb	10.911755	-6.062576	-1.212518
Sb	8.486917	-3.637541	-1.212518
Sb	6.062088	-3.637541	-3.637543
Hf	9.699337	0.000000	0.000000
Hf	12.124176	-2.425025	-2.425025
O	10.831101	1.132311	-1.132311
O	8.406272	1.292714	-3.557336
O	13.255940	-1.292714	-1.292714
O	10.992402	-1.292714	-3.557336
O	10.831101	3.717749	-3.717749
O	13.417241	3.717749	-1.132311
O	13.417241	1.132311	-3.717749
O	15.842070	1.292714	-1.292714
Sb	8.486918	-1.212518	-3.637543
Sb	15.761424	-1.212518	-1.212518
Sb	13.336585	1.212518	-1.212518
Sb	10.911757	1.212518	-3.637543
Hf	0.000000	-4.850058	-4.850058
Hf	2.424839	-7.275084	-7.275084
O	1.131764	-3.717747	-5.982369
O	-1.293065	-3.557344	-8.407395
O	3.556602	-6.142773	-6.142773
O	1.293065	-6.142772	-8.407395
O	1.131764	-1.132309	-8.567808
O	3.717904	-1.132309	-5.982369
O	3.717904	-3.717747	-8.567808
O	6.142732	-3.557344	-6.142773
Sb	-1.212419	-6.062576	-8.487601
Sb	6.062087	-6.062576	-6.062576
Sb	3.637248	-3.637541	-6.062576
Sb	1.212419	-3.637541	-8.487601
Hf	4.849669	0.000000	-4.850058
Hf	7.274507	-2.425025	-7.275084
O	5.981432	1.132311	-5.982369
O	3.556604	1.292714	-8.407395
O	8.406271	-1.292714	-6.142773
O	6.142734	-1.292714	-8.407395
O	5.981432	3.717749	-8.567808
O	8.567572	3.717749	-5.982369
O	8.567572	1.132311	-8.567808
O	10.992401	1.292714	-6.142773
Sb	3.637249	-1.212518	-8.487601
Sb	10.911755	-1.212518	-6.062576
Sb	8.486917	1.212518	-6.062576
Sb	6.062088	1.212518	-8.487601
