40

La	0.000000	0.000000	0.000000
Mg	1.967530	1.967530	1.967530
O	1.967530	1.967530	0.000000
O	1.967530	0.000000	1.967530
O	0.000000	1.967530	1.967530
La	0.000000	0.000000	3.935060
Mg	1.967530	1.967530	5.902590
O	1.967530	1.967530	3.935060
O	1.967530	0.000000	5.902590
O	0.000000	1.967530	5.902590
La	0.000000	3.935060	0.000000
Mg	1.967530	5.902590	1.967530
O	1.967530	5.902590	0.000000
O	1.967530	3.935060	1.967530
O	0.000000	5.902590	1.967530
La	0.000000	3.935060	3.935060
Mg	1.967530	5.902590	5.902590
O	1.967530	5.902590	3.935060
O	1.967530	3.935060	5.902590
O	0.000000	5.902590	5.902590
La	3.935060	0.000000	0.000000
Mg	5.902590	1.967530	1.967530
O	5.902590	1.967530	0.000000
O	5.902590	0.000000	1.967530
O	3.935060	1.967530	1.967530
La	3.935060	0.000000	3.935060
Mg	5.902590	1.967530	5.902590
O	5.902590	1.967530	3.935060
O	5.902590	0.000000	5.902590
O	3.935060	1.967530	5.902590
La	3.935060	3.935060	0.000000
Mg	5.902590	5.902590	1.967530
O	5.902590	5.902590	0.000000
O	5.902590	3.935060	1.967530
O	3.935060	5.902590	1.967530
La	3.935060	3.935060	3.935060
Mg	5.902590	5.902590	5.902590
O	5.902590	5.902590	3.935060
O	5.902590	3.935060	5.902590
O	3.935060	5.902590	5.902590
