40

Au	0.000000	0.000000	0.000000
O	0.000000	2.075065	2.075065
O	2.075065	0.000000	2.075065
O	2.075065	2.075065	0.000000
Sn	2.075065	2.075065	2.075065
Au	0.000000	0.000000	4.150131
O	0.000000	2.075065	6.225196
O	2.075065	0.000000	6.225196
O	2.075065	2.075065	4.150131
Sn	2.075065	2.075065	6.225196
Au	0.000000	4.150131	0.000000
O	0.000000	6.225196	2.075065
O	2.075065	4.150131	2.075065
O	2.075065	6.225196	0.000000
Sn	2.075065	6.225196	2.075065
Au	0.000000	4.150131	4.150131
O	0.000000	6.225196	6.225196
O	2.075065	4.150131	6.225196
O	2.075065	6.225196	4.150131
Sn	2.075065	6.225196	6.225196
Au	4.150131	0.000000	0.000000
O	4.150131	2.075065	2.075065
O	6.225196	0.000000	2.075065
O	6.225196	2.075065	0.000000
Sn	6.225196	2.075065	2.075065
Au	4.150131	0.000000	4.150131
O	4.150131	2.075065	6.225196
O	6.225196	0.000000	6.225196
O	6.225196	2.075065	4.150131
Sn	6.225196	2.075065	6.225196
Au	4.150131	4.150131	0.000000
O	4.150131	6.225196	2.075065
O	6.225196	4.150131	2.075065
O	6.225196	6.225196	0.000000
Sn	6.225196	6.225196	2.075065
Au	4.150131	4.150131	4.150131
O	4.150131	6.225196	6.225196
O	6.225196	4.150131	6.225196
O	6.225196	6.225196	4.150131
Sn	6.225196	6.225196	6.225196
