40

Bi	0.000000	0.000000	0.000000
O	0.000000	2.161420	2.161420
O	2.161420	0.000000	2.161420
O	2.161420	2.161420	0.000000
Pb	2.161420	2.161420	2.161420
Bi	0.000000	0.000000	4.322840
O	0.000000	2.161420	6.484260
O	2.161420	0.000000	6.484260
O	2.161420	2.161420	4.322840
Pb	2.161420	2.161420	6.484260
Bi	0.000000	4.322840	0.000000
O	0.000000	6.484260	2.161420
O	2.161420	4.322840	2.161420
O	2.161420	6.484260	0.000000
Pb	2.161420	6.484260	2.161420
Bi	0.000000	4.322840	4.322840
O	0.000000	6.484260	6.484260
O	2.161420	4.322840	6.484260
O	2.161420	6.484260	4.322840
Pb	2.161420	6.484260	6.484260
Bi	4.322840	0.000000	0.000000
O	4.322840	2.161420	2.161420
O	6.484260	0.000000	2.161420
O	6.484260	2.161420	0.000000
Pb	6.484260	2.161420	2.161420
Bi	4.322840	0.000000	4.322840
O	4.322840	2.161420	6.484260
O	6.484260	0.000000	6.484260
O	6.484260	2.161420	4.322840
Pb	6.484260	2.161420	6.484260
Bi	4.322840	4.322840	0.000000
O	4.322840	6.484260	2.161420
O	6.484260	4.322840	2.161420
O	6.484260	6.484260	0.000000
Pb	6.484260	6.484260	2.161420
Bi	4.322840	4.322840	4.322840
O	4.322840	6.484260	6.484260
O	6.484260	4.322840	6.484260
O	6.484260	6.484260	4.322840
Pb	6.484260	6.484260	6.484260
