40

Np	-0.000001	-0.000009	0.000002
Tc	1.986583	1.986482	1.986481
O	1.986542	1.986500	0.000007
O	1.986586	-0.000032	1.986508
O	0.000026	1.986487	1.986447
Np	0.000066	-0.000056	3.972960
Tc	1.986650	1.986436	5.959440
O	1.986609	1.986454	3.972965
O	1.986653	-0.000078	5.959466
O	0.000093	1.986440	5.959406
Np	-0.000015	3.973019	-0.000045
Tc	1.986569	5.959511	1.986435
O	1.986529	5.959528	-0.000040
O	1.986573	3.972996	1.986461
O	0.000013	5.959515	1.986401
Np	0.000053	3.972972	3.972914
Tc	1.986637	5.959464	5.959393
O	1.986596	5.959482	3.972919
O	1.986640	3.972950	5.959420
O	0.000080	5.959468	5.959359
Np	3.973117	-0.000023	0.000069
Tc	5.959701	1.986469	1.986548
O	5.959661	1.986487	0.000074
O	5.959705	-0.000045	1.986575
O	3.973145	1.986474	1.986515
Np	3.973185	-0.000069	3.973028
Tc	5.959769	1.986423	5.959507
O	5.959728	1.986440	3.973032
O	5.959772	-0.000092	5.959534
O	3.973212	1.986427	5.959473
Np	3.973104	3.973005	0.000022
Tc	5.959688	5.959497	1.986502
O	5.959647	5.959515	0.000027
O	5.959692	3.972983	1.986529
O	3.973132	5.959502	1.986468
Np	3.973171	3.972959	3.972981
Tc	5.959755	5.959451	5.959460
O	5.959715	5.959469	3.972986
O	5.959759	3.972936	5.959487
O	3.973199	5.959455	5.959426
