40

Co	1.829758	1.829758	1.829758
Nb	0.000000	0.000000	0.000000
O	0.000000	1.829758	1.829758
O	1.829758	0.000000	1.829758
O	1.829758	1.829758	0.000000
Co	1.829758	1.829758	5.489274
Nb	0.000000	0.000000	3.659516
O	0.000000	1.829758	5.489274
O	1.829758	0.000000	5.489274
O	1.829758	1.829758	3.659516
Co	1.829758	5.489274	1.829758
Nb	0.000000	3.659516	0.000000
O	0.000000	5.489274	1.829758
O	1.829758	3.659516	1.829758
O	1.829758	5.489274	0.000000
Co	1.829758	5.489274	5.489274
Nb	0.000000	3.659516	3.659516
O	0.000000	5.489274	5.489274
O	1.829758	3.659516	5.489274
O	1.829758	5.489274	3.659516
Co	5.489274	1.829758	1.829758
Nb	3.659516	0.000000	0.000000
O	3.659516	1.829758	1.829758
O	5.489274	0.000000	1.829758
O	5.489274	1.829758	0.000000
Co	5.489274	1.829758	5.489274
Nb	3.659516	0.000000	3.659516
O	3.659516	1.829758	5.489274
O	5.489274	0.000000	5.489274
O	5.489274	1.829758	3.659516
Co	5.489274	5.489274	1.829758
Nb	3.659516	3.659516	0.000000
O	3.659516	5.489274	1.829758
O	5.489274	3.659516	1.829758
O	5.489274	5.489274	0.000000
Co	5.489274	5.489274	5.489274
Nb	3.659516	3.659516	3.659516
O	3.659516	5.489274	5.489274
O	5.489274	3.659516	5.489274
O	5.489274	5.489274	3.659516
