40

Ba	2.343489	2.343489	2.343489
Lu	0.000000	0.000000	0.000000
O	2.343489	2.343489	0.000000
O	2.343489	0.000000	2.343489
O	0.000000	2.343489	2.343489
Ba	2.343489	2.343489	7.030468
Lu	0.000000	0.000000	4.686979
O	2.343489	2.343489	4.686979
O	2.343489	0.000000	7.030468
O	0.000000	2.343489	7.030468
Ba	2.343489	7.030468	2.343489
Lu	0.000000	4.686979	0.000000
O	2.343489	7.030468	0.000000
O	2.343489	4.686979	2.343489
O	0.000000	7.030468	2.343489
Ba	2.343489	7.030468	7.030468
Lu	0.000000	4.686979	4.686979
O	2.343489	7.030468	4.686979
O	2.343489	4.686979	7.030468
O	0.000000	7.030468	7.030468
Ba	7.030468	2.343489	2.343489
Lu	4.686979	0.000000	0.000000
O	7.030468	2.343489	0.000000
O	7.030468	0.000000	2.343489
O	4.686979	2.343489	2.343489
Ba	7.030468	2.343489	7.030468
Lu	4.686979	0.000000	4.686979
O	7.030468	2.343489	4.686979
O	7.030468	0.000000	7.030468
O	4.686979	2.343489	7.030468
Ba	7.030468	7.030468	2.343489
Lu	4.686979	4.686979	0.000000
O	7.030468	7.030468	0.000000
O	7.030468	4.686979	2.343489
O	4.686979	7.030468	2.343489
Ba	7.030468	7.030468	7.030468
Lu	4.686979	4.686979	4.686979
O	7.030468	7.030468	4.686979
O	7.030468	4.686979	7.030468
O	4.686979	7.030468	7.030468
