40

Ba	2.305700	2.305700	2.305700
Lu	0.000000	0.000000	0.000000
O	2.305700	2.305700	0.000000
O	0.000000	2.305700	2.305700
O	2.305700	0.000000	2.305700
Ba	2.305700	2.305700	6.917105
Lu	0.000000	0.000000	4.611405
O	2.305700	2.305700	4.611405
O	0.000000	2.305700	6.917105
O	2.305700	0.000000	6.917105
Ba	2.305700	6.917105	2.305700
Lu	0.000000	4.611405	0.000000
O	2.305700	6.917105	0.000000
O	0.000000	6.917105	2.305700
O	2.305700	4.611405	2.305700
Ba	2.305700	6.917105	6.917105
Lu	0.000000	4.611405	4.611405
O	2.305700	6.917105	4.611405
O	0.000000	6.917105	6.917105
O	2.305700	4.611405	6.917105
Ba	6.917105	2.305700	2.305700
Lu	4.611405	0.000000	0.000000
O	6.917105	2.305700	0.000000
O	4.611405	2.305700	2.305700
O	6.917105	0.000000	2.305700
Ba	6.917105	2.305700	6.917105
Lu	4.611405	0.000000	4.611405
O	6.917105	2.305700	4.611405
O	4.611405	2.305700	6.917105
O	6.917105	0.000000	6.917105
Ba	6.917105	6.917105	2.305700
Lu	4.611405	4.611405	0.000000
O	6.917105	6.917105	0.000000
O	4.611405	6.917105	2.305700
O	6.917105	4.611405	2.305700
Ba	6.917105	6.917105	6.917105
Lu	4.611405	4.611405	4.611405
O	6.917105	6.917105	4.611405
O	4.611405	6.917105	6.917105
O	6.917105	4.611405	6.917105
