40

Ni	1.866982	1.866982	1.866982
O	0.000000	1.866982	1.866982
O	1.866982	0.000000	1.866982
O	1.866982	1.866982	0.000000
W	0.000000	0.000000	0.000000
Ni	1.866982	1.866982	5.600946
O	0.000000	1.866982	5.600946
O	1.866982	0.000000	5.600946
O	1.866982	1.866982	3.733964
W	0.000000	0.000000	3.733964
Ni	1.866982	5.600946	1.866982
O	0.000000	5.600946	1.866982
O	1.866982	3.733964	1.866982
O	1.866982	5.600946	0.000000
W	0.000000	3.733964	0.000000
Ni	1.866982	5.600946	5.600946
O	0.000000	5.600946	5.600946
O	1.866982	3.733964	5.600946
O	1.866982	5.600946	3.733964
W	0.000000	3.733964	3.733964
Ni	5.600946	1.866982	1.866982
O	3.733964	1.866982	1.866982
O	5.600946	0.000000	1.866982
O	5.600946	1.866982	0.000000
W	3.733964	0.000000	0.000000
Ni	5.600946	1.866982	5.600946
O	3.733964	1.866982	5.600946
O	5.600946	0.000000	5.600946
O	5.600946	1.866982	3.733964
W	3.733964	0.000000	3.733964
Ni	5.600946	5.600946	1.866982
O	3.733964	5.600946	1.866982
O	5.600946	3.733964	1.866982
O	5.600946	5.600946	0.000000
W	3.733964	3.733964	0.000000
Ni	5.600946	5.600946	5.600946
O	3.733964	5.600946	5.600946
O	5.600946	3.733964	5.600946
O	5.600946	5.600946	3.733964
W	3.733964	3.733964	3.733964
