112

La	0.000000	0.000000	0.000000
La	2.272727	-2.272692	-2.272692
O	3.563274	-0.981323	-0.981323
O	-0.982180	0.981323	-3.564062
O	0.982180	-0.981323	-3.564062
O	1.290547	1.291370	-1.291370
O	5.527633	0.981323	-0.981323
O	1.290547	3.254015	-3.254015
O	3.254906	3.254015	-1.291370
O	3.254906	1.291370	-3.254015
Zn	-1.136363	-1.136346	-3.409038
Zn	3.409090	1.136346	-1.136346
Zn	5.681817	-1.136346	-1.136346
Zn	1.136363	1.136346	-3.409038
La	4.545454	4.545384	0.000000
La	6.818180	2.272692	-2.272692
O	8.108728	3.564062	-0.981323
O	3.563274	5.526707	-3.564062
O	5.527633	3.564062	-3.564062
O	5.836001	5.836754	-1.291370
O	10.073087	5.526707	-0.981323
O	5.836001	7.799399	-3.254015
O	7.800360	7.799399	-1.291370
O	7.800360	5.836754	-3.254015
Zn	3.409090	3.409038	-3.409038
Zn	7.954544	5.681731	-1.136346
Zn	10.227271	3.409038	-1.136346
Zn	5.681817	5.681731	-3.409038
La	-4.545454	0.000000	-4.545384
La	-2.272727	-2.272692	-6.818077
O	-0.982180	-0.981323	-5.526707
O	-5.527633	0.981323	-8.109446
O	-3.563274	-0.981323	-8.109446
O	-3.254906	1.291370	-5.836754
O	0.982180	0.981323	-5.526707
O	-3.254906	3.254015	-7.799399
O	-1.290547	3.254015	-5.836754
O	-1.290547	1.291370	-7.799399
Zn	-5.681817	-1.136346	-7.954423
Zn	-1.136363	1.136346	-5.681731
Zn	1.136363	-1.136346	-5.681731
Zn	-3.409090	1.136346	-7.954423
La	0.000000	4.545384	-4.545384
La	2.272727	2.272692	-6.818077
O	3.563274	3.564062	-5.526707
O	-0.982180	5.526707	-8.109446
O	0.982180	3.564062	-8.109446
O	1.290547	5.836754	-5.836754
O	5.527633	5.526707	-5.526707
O	1.290547	7.799399	-7.799399
O	3.254906	7.799399	-5.836754
O	3.254906	5.836754	-7.799399
Zn	-1.136363	3.409038	-7.954423
Zn	3.409090	5.681731	-5.681731
Zn	5.681817	3.409038	-5.681731
Zn	1.136363	5.681731	-7.954423
La	4.545454	-4.545384	0.000000
La	6.818180	-6.818077	-2.272692
O	8.108728	-5.526707	-0.981323
O	3.563274	-3.564062	-3.564062
O	5.527633	-5.526707	-3.564062
O	5.836001	-3.254015	-1.291370
O	10.073087	-3.564062	-0.981323
O	5.836001	-1.291369	-3.254015
O	7.800360	-1.291369	-1.291370
O	7.800360	-3.254015	-3.254015
Zn	3.409090	-5.681731	-3.409038
Zn	7.954544	-3.409038	-1.136346
Zn	10.227271	-5.681731	-1.136346
Zn	5.681817	-3.409038	-3.409038
La	9.090907	0.000000	0.000000
La	11.363634	-2.272692	-2.272692
O	12.654181	-0.981323	-0.981323
O	8.108727	0.981323	-3.564062
O	10.073087	-0.981323	-3.564062
O	10.381454	1.291370	-1.291370
O	14.618540	0.981323	-0.981323
O	10.381454	3.254015	-3.254015
O	12.345814	3.254015	-1.291370
O	12.345814	1.291370	-3.254015
Zn	7.954544	-1.136346	-3.409038
Zn	12.499997	1.136346	-1.136346
Zn	14.772724	-1.136346	-1.136346
Zn	10.227271	1.136346	-3.409038
La	0.000000	-4.545384	-4.545384
La	2.272727	-6.818077	-6.818077
O	3.563274	-5.526707	-5.526707
O	-0.982180	-3.564062	-8.109446
O	0.982180	-5.526707	-8.109446
O	1.290547	-3.254015	-5.836754
O	5.527633	-3.564062	-5.526707
O	1.290547	-1.291369	-7.799399
O	3.254906	-1.291369	-5.836754
O	3.254906	-3.254015	-7.799399
Zn	-1.136363	-5.681731	-7.954423
Zn	3.409090	-3.409038	-5.681731
Zn	5.681817	-5.681731	-5.681731
Zn	1.136363	-3.409038	-7.954423
La	4.545454	0.000000	-4.545384
La	6.818180	-2.272692	-6.818077
O	8.108728	-0.981323	-5.526707
O	3.563274	0.981323	-8.109446
O	5.527633	-0.981323	-8.109446
O	5.836001	1.291370	-5.836754
O	10.073087	0.981323	-5.526707
O	5.836001	3.254015	-7.799399
O	7.800360	3.254015	-5.836754
O	7.800360	1.291370	-7.799399
Zn	3.409090	-1.136346	-7.954423
Zn	7.954544	1.136346	-5.681731
Zn	10.227271	-1.136346	-5.681731
Zn	5.681817	1.136346	-7.954423
