40

O	2.058420	2.058420	0.000000
O	0.000000	2.058420	2.058420
O	2.058420	0.000000	2.058420
Sm_3	0.000000	0.000000	0.000000
Sn_d	2.058420	2.058420	2.058420
O	2.058420	2.058420	4.116836
O	0.000000	2.058420	6.175256
O	2.058420	0.000000	6.175256
Sm_3	0.000000	0.000000	4.116836
Sn_d	2.058420	2.058420	6.175256
O	2.058420	6.175256	0.000000
O	0.000000	6.175256	2.058420
O	2.058420	4.116836	2.058420
Sm_3	0.000000	4.116836	0.000000
Sn_d	2.058420	6.175256	2.058420
O	2.058420	6.175256	4.116836
O	0.000000	6.175256	6.175256
O	2.058420	4.116836	6.175256
Sm_3	0.000000	4.116836	4.116836
Sn_d	2.058420	6.175256	6.175256
O	6.175256	2.058420	0.000000
O	4.116836	2.058420	2.058420
O	6.175256	0.000000	2.058420
Sm_3	4.116836	0.000000	0.000000
Sn_d	6.175256	2.058420	2.058420
O	6.175256	2.058420	4.116836
O	4.116836	2.058420	6.175256
O	6.175256	0.000000	6.175256
Sm_3	4.116836	0.000000	4.116836
Sn_d	6.175256	2.058420	6.175256
O	6.175256	6.175256	0.000000
O	4.116836	6.175256	2.058420
O	6.175256	4.116836	2.058420
Sm_3	4.116836	4.116836	0.000000
Sn_d	6.175256	6.175256	2.058420
O	6.175256	6.175256	4.116836
O	4.116836	6.175256	6.175256
O	6.175256	4.116836	6.175256
Sm_3	4.116836	4.116836	4.116836
Sn_d	6.175256	6.175256	6.175256
