40

F	1.891253	1.891253	1.891253
Ge	0.000000	0.000000	0.000000
O	0.000000	1.891253	1.891253
O	1.891253	0.000000	1.891253
O	1.891253	1.891253	0.000000
F	1.891253	1.891253	5.673758
Ge	0.000000	0.000000	3.782506
O	0.000000	1.891253	5.673758
O	1.891253	0.000000	5.673758
O	1.891253	1.891253	3.782506
F	1.891253	5.673758	1.891253
Ge	0.000000	3.782506	0.000000
O	0.000000	5.673758	1.891253
O	1.891253	3.782506	1.891253
O	1.891253	5.673758	0.000000
F	1.891253	5.673758	5.673758
Ge	0.000000	3.782506	3.782506
O	0.000000	5.673758	5.673758
O	1.891253	3.782506	5.673758
O	1.891253	5.673758	3.782506
F	5.673758	1.891253	1.891253
Ge	3.782506	0.000000	0.000000
O	3.782506	1.891253	1.891253
O	5.673758	0.000000	1.891253
O	5.673758	1.891253	0.000000
F	5.673758	1.891253	5.673758
Ge	3.782506	0.000000	3.782506
O	3.782506	1.891253	5.673758
O	5.673758	0.000000	5.673758
O	5.673758	1.891253	3.782506
F	5.673758	5.673758	1.891253
Ge	3.782506	3.782506	0.000000
O	3.782506	5.673758	1.891253
O	5.673758	3.782506	1.891253
O	5.673758	5.673758	0.000000
F	5.673758	5.673758	5.673758
Ge	3.782506	3.782506	3.782506
O	3.782506	5.673758	5.673758
O	5.673758	3.782506	5.673758
O	5.673758	5.673758	3.782506
