40

Gd	0.000000	0.000000	0.000000
In	2.058493	2.058493	2.058493
O	0.000000	2.058493	2.058493
O	2.058493	0.000000	2.058493
O	2.058493	2.058493	0.000000
Gd	0.000000	0.000000	4.116987
In	2.058493	2.058493	6.175480
O	0.000000	2.058493	6.175480
O	2.058493	0.000000	6.175480
O	2.058493	2.058493	4.116987
Gd	0.000000	4.116987	0.000000
In	2.058493	6.175480	2.058493
O	0.000000	6.175480	2.058493
O	2.058493	4.116987	2.058493
O	2.058493	6.175480	0.000000
Gd	0.000000	4.116987	4.116987
In	2.058493	6.175480	6.175480
O	0.000000	6.175480	6.175480
O	2.058493	4.116987	6.175480
O	2.058493	6.175480	4.116987
Gd	4.116987	0.000000	0.000000
In	6.175480	2.058493	2.058493
O	4.116987	2.058493	2.058493
O	6.175480	0.000000	2.058493
O	6.175480	2.058493	0.000000
Gd	4.116987	0.000000	4.116987
In	6.175480	2.058493	6.175480
O	4.116987	2.058493	6.175480
O	6.175480	0.000000	6.175480
O	6.175480	2.058493	4.116987
Gd	4.116987	4.116987	0.000000
In	6.175480	6.175480	2.058493
O	4.116987	6.175480	2.058493
O	6.175480	4.116987	2.058493
O	6.175480	6.175480	0.000000
Gd	4.116987	4.116987	4.116987
In	6.175480	6.175480	6.175480
O	4.116987	6.175480	6.175480
O	6.175480	4.116987	6.175480
O	6.175480	6.175480	4.116987
