40

Au	0.000000	0.000000	0.000000
Eu	2.130932	2.130932	2.130932
O	2.130932	2.130932	0.000000
O	2.130932	0.000000	2.130932
O	0.000000	2.130932	2.130932
Au	0.000000	0.000000	4.261856
Eu	2.130932	2.130932	6.392788
O	2.130932	2.130932	4.261856
O	2.130932	0.000000	6.392788
O	0.000000	2.130932	6.392788
Au	0.000000	4.261856	0.000000
Eu	2.130932	6.392788	2.130932
O	2.130932	6.392788	0.000000
O	2.130932	4.261856	2.130932
O	0.000000	6.392788	2.130932
Au	0.000000	4.261856	4.261856
Eu	2.130932	6.392788	6.392788
O	2.130932	6.392788	4.261856
O	2.130932	4.261856	6.392788
O	0.000000	6.392788	6.392788
Au	4.261856	0.000000	0.000000
Eu	6.392788	2.130932	2.130932
O	6.392788	2.130932	0.000000
O	6.392788	0.000000	2.130932
O	4.261856	2.130932	2.130932
Au	4.261856	0.000000	4.261856
Eu	6.392788	2.130932	6.392788
O	6.392788	2.130932	4.261856
O	6.392788	0.000000	6.392788
O	4.261856	2.130932	6.392788
Au	4.261856	4.261856	0.000000
Eu	6.392788	6.392788	2.130932
O	6.392788	6.392788	0.000000
O	6.392788	4.261856	2.130932
O	4.261856	6.392788	2.130932
Au	4.261856	4.261856	4.261856
Eu	6.392788	6.392788	6.392788
O	6.392788	6.392788	4.261856
O	6.392788	4.261856	6.392788
O	4.261856	6.392788	6.392788
