40

Au	2.035404	2.035404	2.035404
Eu	0.000000	0.000000	0.000000
O	2.035404	2.035404	0.000000
O	2.035404	0.000000	2.035404
O	0.000000	2.035404	2.035404
Au	2.035404	2.035404	6.106213
Eu	0.000000	0.000000	4.070808
O	2.035404	2.035404	4.070808
O	2.035404	0.000000	6.106213
O	0.000000	2.035404	6.106213
Au	2.035404	6.106213	2.035404
Eu	0.000000	4.070808	0.000000
O	2.035404	6.106213	0.000000
O	2.035404	4.070808	2.035404
O	0.000000	6.106213	2.035404
Au	2.035404	6.106213	6.106213
Eu	0.000000	4.070808	4.070808
O	2.035404	6.106213	4.070808
O	2.035404	4.070808	6.106213
O	0.000000	6.106213	6.106213
Au	6.106213	2.035404	2.035404
Eu	4.070808	0.000000	0.000000
O	6.106213	2.035404	0.000000
O	6.106213	0.000000	2.035404
O	4.070808	2.035404	2.035404
Au	6.106213	2.035404	6.106213
Eu	4.070808	0.000000	4.070808
O	6.106213	2.035404	4.070808
O	6.106213	0.000000	6.106213
O	4.070808	2.035404	6.106213
Au	6.106213	6.106213	2.035404
Eu	4.070808	4.070808	0.000000
O	6.106213	6.106213	0.000000
O	6.106213	4.070808	2.035404
O	4.070808	6.106213	2.035404
Au	6.106213	6.106213	6.106213
Eu	4.070808	4.070808	4.070808
O	6.106213	6.106213	4.070808
O	6.106213	4.070808	6.106213
O	4.070808	6.106213	6.106213
