112

O	0.960727	0.957472	-0.957472
O	1.370202	-1.363493	-3.278436
O	3.291647	-1.363493	-1.363493
O	-1.370202	1.363493	-3.278436
O	3.701121	3.684448	-0.957472
O	3.701121	0.957472	-3.684448
O	0.960727	3.684448	-3.684448
O	6.032050	1.363493	-1.363493
Si	0.000000	0.000000	0.000000
Si	2.330919	-2.320965	-2.320965
Te	-1.165460	-1.160477	-3.481442
Te	1.165460	1.160477	-3.481442
Te	3.496389	1.160477	-1.160477
Te	5.827308	-1.160477	-1.160477
O	5.622575	5.599399	-0.957472
O	6.032049	3.278434	-3.278436
O	7.953494	3.278434	-1.363493
O	3.291646	6.005420	-3.278436
O	8.362968	8.326375	-0.957472
O	8.362968	5.599399	-3.684448
O	5.622575	8.326375	-3.684448
O	10.693897	6.005420	-1.363493
Si	4.661847	4.641927	0.000000
Si	6.992767	2.320963	-2.320965
Te	3.496388	3.481450	-3.481442
Te	5.827307	5.802405	-3.481442
Te	8.158236	5.802405	-1.160477
Te	10.489155	3.481450	-1.160477
O	-3.701120	0.957472	-5.599399
O	-3.291646	-1.363493	-7.920364
O	-1.370201	-1.363493	-6.005420
O	-6.032049	1.363493	-7.920364
O	-0.960726	3.684448	-5.599399
O	-0.960726	0.957472	-8.326375
O	-3.701120	3.684448	-8.326375
O	1.370203	1.363493	-6.005420
Si	-4.661847	0.000000	-4.641927
Si	-2.330928	-2.320965	-6.962892
Te	-5.827307	-1.160477	-8.123369
Te	-3.496388	1.160477	-8.123369
Te	-1.165459	1.160477	-5.802405
Te	1.165461	-1.160477	-5.802405
O	0.960727	5.599399	-5.599399
O	1.370202	3.278434	-7.920364
O	3.291647	3.278434	-6.005420
O	-1.370202	6.005420	-7.920364
O	3.701121	8.326375	-5.599399
O	3.701121	5.599399	-8.326375
O	0.960727	8.326375	-8.326375
O	6.032050	6.005420	-6.005420
Si	0.000000	4.641927	-4.641927
Si	2.330919	2.320963	-6.962892
Te	-1.165460	3.481450	-8.123369
Te	1.165460	5.802405	-8.123369
Te	3.496389	5.802405	-5.802405
Te	5.827308	3.481450	-5.802405
O	5.622575	-3.684456	-0.957472
O	6.032049	-6.005420	-3.278436
O	7.953494	-6.005420	-1.363493
O	3.291646	-3.278434	-3.278436
O	8.362968	-0.957480	-0.957472
O	8.362968	-3.684456	-3.684448
O	5.622575	-0.957480	-3.684448
O	10.693897	-3.278434	-1.363493
Si	4.661847	-4.641927	0.000000
Si	6.992767	-6.962892	-2.320965
Te	3.496388	-5.802405	-3.481442
Te	5.827307	-3.481450	-3.481442
Te	8.158236	-3.481450	-1.160477
Te	10.489155	-5.802405	-1.160477
O	10.284422	0.957472	-0.957472
O	10.693896	-1.363493	-3.278436
O	12.615341	-1.363493	-1.363493
O	7.953493	1.363493	-3.278436
O	13.024816	3.684448	-0.957472
O	13.024816	0.957472	-3.684448
O	10.284422	3.684448	-3.684448
O	15.355745	1.363493	-1.363493
Si	9.323695	0.000000	0.000000
Si	11.654614	-2.320965	-2.320965
Te	8.158235	-1.160477	-3.481442
Te	10.489154	1.160477	-3.481442
Te	12.820084	1.160477	-1.160477
Te	15.151003	-1.160477	-1.160477
O	0.960727	-3.684456	-5.599399
O	1.370202	-6.005420	-7.920364
O	3.291647	-6.005420	-6.005420
O	-1.370202	-3.278434	-7.920364
O	3.701121	-0.957480	-5.599399
O	3.701121	-3.684456	-8.326375
O	0.960727	-0.957480	-8.326375
O	6.032050	-3.278434	-6.005420
Si	0.000000	-4.641927	-4.641927
Si	2.330919	-6.962892	-6.962892
Te	-1.165460	-5.802405	-8.123369
Te	1.165460	-3.481450	-8.123369
Te	3.496389	-3.481450	-5.802405
Te	5.827308	-5.802405	-5.802405
O	5.622575	0.957472	-5.599399
O	6.032049	-1.363493	-7.920364
O	7.953494	-1.363493	-6.005420
O	3.291646	1.363493	-7.920364
O	8.362968	3.684448	-5.599399
O	8.362968	0.957472	-8.326375
O	5.622575	3.684448	-8.326375
O	10.693897	1.363493	-6.005420
Si	4.661847	0.000000	-4.641927
Si	6.992767	-2.320965	-6.962892
Te	3.496388	-1.160477	-8.123369
Te	5.827307	1.160477	-8.123369
Te	8.158236	1.160477	-5.802405
Te	10.489155	-1.160477	-5.802405
