40

O	0.000000	2.221708	0.000000
O	0.000000	0.000000	2.221708
O	2.221708	0.000000	0.000000
Ba	2.221708	2.221708	2.221708
Tb	0.000000	0.000000	0.000000
O	0.000000	2.221708	4.443416
O	0.000000	0.000000	6.665123
O	2.221708	0.000000	4.443416
Ba	2.221708	2.221708	6.665123
Tb	0.000000	0.000000	4.443416
O	0.000000	6.665123	0.000000
O	0.000000	4.443416	2.221708
O	2.221708	4.443416	0.000000
Ba	2.221708	6.665123	2.221708
Tb	0.000000	4.443416	0.000000
O	0.000000	6.665123	4.443416
O	0.000000	4.443416	6.665123
O	2.221708	4.443416	4.443416
Ba	2.221708	6.665123	6.665123
Tb	0.000000	4.443416	4.443416
O	4.443416	2.221708	0.000000
O	4.443416	0.000000	2.221708
O	6.665123	0.000000	0.000000
Ba	6.665123	2.221708	2.221708
Tb	4.443416	0.000000	0.000000
O	4.443416	2.221708	4.443416
O	4.443416	0.000000	6.665123
O	6.665123	0.000000	4.443416
Ba	6.665123	2.221708	6.665123
Tb	4.443416	0.000000	4.443416
O	4.443416	6.665123	0.000000
O	4.443416	4.443416	2.221708
O	6.665123	4.443416	0.000000
Ba	6.665123	6.665123	2.221708
Tb	4.443416	4.443416	0.000000
O	4.443416	6.665123	4.443416
O	4.443416	4.443416	6.665123
O	6.665123	4.443416	4.443416
Ba	6.665123	6.665123	6.665123
Tb	4.443416	4.443416	4.443416
