40

Ca	2.165235	2.165235	2.165235
O	2.165235	2.165235	0.000000
O	2.165235	0.000000	2.165235
O	0.000000	2.165235	2.165235
Pd	0.000000	0.000000	0.000000
Ca	2.165235	2.165235	6.495704
O	2.165235	2.165235	4.330469
O	2.165235	0.000000	6.495704
O	0.000000	2.165235	6.495704
Pd	0.000000	0.000000	4.330469
Ca	2.165235	6.495704	2.165235
O	2.165235	6.495704	0.000000
O	2.165235	4.330469	2.165235
O	0.000000	6.495704	2.165235
Pd	0.000000	4.330469	0.000000
Ca	2.165235	6.495704	6.495704
O	2.165235	6.495704	4.330469
O	2.165235	4.330469	6.495704
O	0.000000	6.495704	6.495704
Pd	0.000000	4.330469	4.330469
Ca	6.495704	2.165235	2.165235
O	6.495704	2.165235	0.000000
O	6.495704	0.000000	2.165235
O	4.330469	2.165235	2.165235
Pd	4.330469	0.000000	0.000000
Ca	6.495704	2.165235	6.495704
O	6.495704	2.165235	4.330469
O	6.495704	0.000000	6.495704
O	4.330469	2.165235	6.495704
Pd	4.330469	0.000000	4.330469
Ca	6.495704	6.495704	2.165235
O	6.495704	6.495704	0.000000
O	6.495704	4.330469	2.165235
O	4.330469	6.495704	2.165235
Pd	4.330469	4.330469	0.000000
Ca	6.495704	6.495704	6.495704
O	6.495704	6.495704	4.330469
O	6.495704	4.330469	6.495704
O	4.330469	6.495704	6.495704
Pd	4.330469	4.330469	4.330469
