112

Eu	0.000000	0.000000	0.000000
Eu	2.496929	-2.497741	-2.497741
O	3.871044	-1.122646	-1.122646
O	-1.122814	1.122646	-3.872836
O	1.122814	-1.122646	-3.872836
O	1.374115	1.375095	-1.375095
O	6.116672	1.122646	-1.122646
O	1.374115	3.620387	-3.620387
O	3.619743	3.620387	-1.375095
O	3.619743	1.375095	-3.620387
Pm	-1.248465	-1.248870	-3.746611
Pm	3.745394	1.248870	-1.248870
Pm	6.242323	-1.248870	-1.248870
Pm	1.248465	1.248870	-3.746611
Eu	4.993858	4.995482	0.000000
Eu	7.490787	2.497741	-2.497741
O	8.864903	3.872836	-1.122646
O	3.871044	6.118128	-3.872836
O	6.116672	3.872836	-3.872836
O	6.367973	6.370577	-1.375095
O	11.110530	6.118128	-1.122646
O	6.367973	8.615868	-3.620387
O	8.613601	8.615868	-1.375095
O	8.613601	6.370577	-3.620387
Pm	3.745394	3.746611	-3.746611
Pm	8.739252	6.244352	-1.248870
Pm	11.236181	3.746611	-1.248870
Pm	6.242323	6.244352	-3.746611
Eu	-4.993858	0.000000	-4.995482
Eu	-2.496929	-2.497741	-7.493223
O	-1.122814	-1.122646	-6.118128
O	-6.116672	1.122646	-8.868318
O	-3.871044	-1.122646	-8.868318
O	-3.619743	1.375095	-6.370577
O	1.122814	1.122646	-6.118128
O	-3.619743	3.620387	-8.615868
O	-1.374115	3.620387	-6.370577
O	-1.374115	1.375095	-8.615868
Pm	-6.242323	-1.248870	-8.742093
Pm	-1.248465	1.248870	-6.244352
Pm	1.248465	-1.248870	-6.244352
Pm	-3.745394	1.248870	-8.742093
Eu	0.000000	4.995482	-4.995482
Eu	2.496929	2.497741	-7.493223
O	3.871044	3.872836	-6.118128
O	-1.122814	6.118128	-8.868318
O	1.122814	3.872836	-8.868318
O	1.374115	6.370577	-6.370577
O	6.116672	6.118128	-6.118128
O	1.374115	8.615868	-8.615868
O	3.619743	8.615868	-6.370577
O	3.619743	6.370577	-8.615868
Pm	-1.248465	3.746611	-8.742093
Pm	3.745394	6.244352	-6.244352
Pm	6.242323	3.746611	-6.244352
Pm	1.248465	6.244352	-8.742093
Eu	4.993858	-4.995482	0.000000
Eu	7.490787	-7.493223	-2.497741
O	8.864903	-6.118128	-1.122646
O	3.871044	-3.872836	-3.872836
O	6.116672	-6.118128	-3.872836
O	6.367973	-3.620387	-1.375095
O	11.110530	-3.872836	-1.122646
O	6.367973	-1.375095	-3.620387
O	8.613601	-1.375095	-1.375095
O	8.613601	-3.620387	-3.620387
Pm	3.745394	-6.244352	-3.746611
Pm	8.739252	-3.746611	-1.248870
Pm	11.236181	-6.244352	-1.248870
Pm	6.242323	-3.746611	-3.746611
Eu	9.987716	0.000000	0.000000
Eu	12.484646	-2.497741	-2.497741
O	13.858761	-1.122646	-1.122646
O	8.864903	1.122646	-3.872836
O	11.110530	-1.122646	-3.872836
O	11.361832	1.375095	-1.375095
O	16.104389	1.122646	-1.122646
O	11.361832	3.620387	-3.620387
O	13.607460	3.620387	-1.375095
O	13.607460	1.375095	-3.620387
Pm	8.739252	-1.248870	-3.746611
Pm	13.733110	1.248870	-1.248870
Pm	16.230039	-1.248870	-1.248870
Pm	11.236181	1.248870	-3.746611
Eu	0.000000	-4.995482	-4.995482
Eu	2.496929	-7.493223	-7.493223
O	3.871044	-6.118128	-6.118128
O	-1.122814	-3.872836	-8.868318
O	1.122814	-6.118128	-8.868318
O	1.374115	-3.620387	-6.370577
O	6.116672	-3.872836	-6.118128
O	1.374115	-1.375095	-8.615868
O	3.619743	-1.375095	-6.370577
O	3.619743	-3.620387	-8.615868
Pm	-1.248465	-6.244352	-8.742093
Pm	3.745394	-3.746611	-6.244352
Pm	6.242323	-6.244352	-6.244352
Pm	1.248465	-3.746611	-8.742093
Eu	4.993858	0.000000	-4.995482
Eu	7.490787	-2.497741	-7.493223
O	8.864903	-1.122646	-6.118128
O	3.871044	1.122646	-8.868318
O	6.116672	-1.122646	-8.868318
O	6.367973	1.375095	-6.370577
O	11.110530	1.122646	-6.118128
O	6.367973	3.620387	-8.615868
O	8.613601	3.620387	-6.370577
O	8.613601	1.375095	-8.615868
Pm	3.745394	-1.248870	-8.742093
Pm	8.739252	1.248870	-6.244352
Pm	11.236181	-1.248870	-6.244352
Pm	6.242323	1.248870	-8.742093
