112

Be	0.000000	0.000000	0.000000
Be	2.021727	-2.022013	-2.022013
Mo	-1.010863	-1.011001	-3.033014
Mo	3.032580	1.011001	-1.011001
Mo	1.010863	1.011001	-3.033014
Mo	5.054307	-1.011001	-1.011001
O	0.923671	0.923943	-0.923943
O	2.945388	-1.098070	-1.098070
O	-1.098056	1.098070	-2.945956
O	1.098056	-1.098070	-2.945956
O	0.923671	3.120082	-3.120082
O	3.119772	0.923943	-3.120082
O	3.119772	3.120082	-0.923943
O	5.141499	1.098070	-1.098070
Be	4.043444	4.044022	0.000000
Be	6.065170	2.022009	-2.022013
Mo	3.032580	3.033021	-3.033014
Mo	7.076024	5.055023	-1.011001
Mo	5.054307	5.055023	-3.033014
Mo	9.097751	3.033021	-1.011001
O	4.967115	4.967965	-0.923943
O	6.988832	2.945952	-1.098070
O	2.945388	5.142091	-2.945956
O	5.141499	2.945952	-2.945956
O	4.967115	7.164104	-3.120082
O	7.163216	4.967965	-3.120082
O	7.163216	7.164104	-0.923943
O	9.184943	5.142091	-1.098070
Be	-4.043444	0.000000	-4.044022
Be	-2.021717	-2.022013	-6.066034
Mo	-5.054307	-1.011001	-7.077036
Mo	-1.010864	1.011001	-5.055023
Mo	-3.032580	1.011001	-7.077036
Mo	1.010863	-1.011001	-5.055023
O	-3.119773	0.923943	-4.967965
O	-1.098056	-1.098070	-5.142091
O	-5.141499	1.098070	-6.989978
O	-2.945388	-1.098070	-6.989978
O	-3.119773	3.120082	-7.164104
O	-0.923671	0.923943	-7.164104
O	-0.923671	3.120082	-4.967965
O	1.098055	1.098070	-5.142091
Be	0.000000	4.044022	-4.044022
Be	2.021727	2.022009	-6.066034
Mo	-1.010863	3.033021	-7.077036
Mo	3.032580	5.055023	-5.055023
Mo	1.010863	5.055023	-7.077036
Mo	5.054307	3.033021	-5.055023
O	0.923671	4.967965	-4.967965
O	2.945388	2.945952	-5.142091
O	-1.098056	5.142091	-6.989978
O	1.098056	2.945952	-6.989978
O	0.923671	7.164104	-7.164104
O	3.119772	4.967965	-7.164104
O	3.119772	7.164104	-4.967965
O	5.141499	5.142091	-5.142091
Be	4.043444	-4.044022	0.000000
Be	6.065170	-6.066034	-2.022013
Mo	3.032580	-5.055023	-3.033014
Mo	7.076024	-3.033021	-1.011001
Mo	5.054307	-3.033021	-3.033014
Mo	9.097751	-5.055023	-1.011001
O	4.967115	-3.120079	-0.923943
O	6.988832	-5.142091	-1.098070
O	2.945388	-2.945952	-2.945956
O	5.141499	-5.142091	-2.945956
O	4.967115	-0.923940	-3.120082
O	7.163216	-3.120079	-3.120082
O	7.163216	-0.923940	-0.923943
O	9.184943	-2.945952	-1.098070
Be	8.086887	0.000000	0.000000
Be	10.108614	-2.022013	-2.022013
Mo	7.076024	-1.011001	-3.033014
Mo	11.119468	1.011001	-1.011001
Mo	9.097751	1.011001	-3.033014
Mo	13.141194	-1.011001	-1.011001
O	9.010559	0.923943	-0.923943
O	11.032275	-1.098070	-1.098070
O	6.988832	1.098070	-2.945956
O	9.184943	-1.098070	-2.945956
O	9.010559	3.120082	-3.120082
O	11.206660	0.923943	-3.120082
O	11.206660	3.120082	-0.923943
O	13.228387	1.098070	-1.098070
Be	0.000000	-4.044022	-4.044022
Be	2.021727	-6.066034	-6.066034
Mo	-1.010863	-5.055023	-7.077036
Mo	3.032580	-3.033021	-5.055023
Mo	1.010863	-3.033021	-7.077036
Mo	5.054307	-5.055023	-5.055023
O	0.923671	-3.120079	-4.967965
O	2.945388	-5.142091	-5.142091
O	-1.098056	-2.945952	-6.989978
O	1.098056	-5.142091	-6.989978
O	0.923671	-0.923940	-7.164104
O	3.119772	-3.120079	-7.164104
O	3.119772	-0.923940	-4.967965
O	5.141499	-2.945952	-5.142091
Be	4.043444	0.000000	-4.044022
Be	6.065170	-2.022013	-6.066034
Mo	3.032580	-1.011001	-7.077036
Mo	7.076024	1.011001	-5.055023
Mo	5.054307	1.011001	-7.077036
Mo	9.097751	-1.011001	-5.055023
O	4.967115	0.923943	-4.967965
O	6.988832	-1.098070	-5.142091
O	2.945388	1.098070	-6.989978
O	5.141499	-1.098070	-6.989978
O	4.967115	3.120082	-7.164104
O	7.163216	0.923943	-7.164104
O	7.163216	3.120082	-4.967965
O	9.184943	1.098070	-5.142091
