40

Ac	2.308086	2.308086	2.308086
O	2.308086	2.308086	0.000000
O	2.308086	0.000000	2.308086
O	0.000000	2.308086	2.308086
Sc	0.000000	0.000000	0.000000
Ac	2.308086	2.308086	6.924251
O	2.308086	2.308086	4.616165
O	2.308086	0.000000	6.924251
O	0.000000	2.308086	6.924251
Sc	0.000000	0.000000	4.616165
Ac	2.308086	6.924251	2.308086
O	2.308086	6.924251	0.000000
O	2.308086	4.616165	2.308086
O	0.000000	6.924251	2.308086
Sc	0.000000	4.616165	0.000000
Ac	2.308086	6.924251	6.924251
O	2.308086	6.924251	4.616165
O	2.308086	4.616165	6.924251
O	0.000000	6.924251	6.924251
Sc	0.000000	4.616165	4.616165
Ac	6.924251	2.308086	2.308086
O	6.924251	2.308086	0.000000
O	6.924251	0.000000	2.308086
O	4.616165	2.308086	2.308086
Sc	4.616165	0.000000	0.000000
Ac	6.924251	2.308086	6.924251
O	6.924251	2.308086	4.616165
O	6.924251	0.000000	6.924251
O	4.616165	2.308086	6.924251
Sc	4.616165	0.000000	4.616165
Ac	6.924251	6.924251	2.308086
O	6.924251	6.924251	0.000000
O	6.924251	4.616165	2.308086
O	4.616165	6.924251	2.308086
Sc	4.616165	4.616165	0.000000
Ac	6.924251	6.924251	6.924251
O	6.924251	6.924251	4.616165
O	6.924251	4.616165	6.924251
O	4.616165	6.924251	6.924251
Sc	4.616165	4.616165	4.616165
