112

O	1.810263	5.896468	-2.560098
O	-0.072066	3.135467	0.101917
O	6.011623	1.380501	2.560098
O	-1.013230	4.515968	4.814446
O	1.013230	1.505323	2.560098
O	2.679361	1.630145	-0.101917
K	1.611168	3.010645	-2.413270
K	0.063514	0.110010	0.044911
K	-1.674683	2.900635	2.503093
K	3.476394	0.000000	2.323447
Sn	3.476394	0.000000	-1.143165
Sn	-0.040506	0.070158	3.658630
Sn	1.697691	2.940487	1.200449
Sn	-1.657185	3.010645	-1.257733
O	1.810263	5.896468	4.814446
O	-0.072066	3.135467	7.476461
O	6.011623	1.380501	9.934643
O	-1.013230	4.515968	12.188991
O	1.013230	1.505323	9.934643
O	2.679361	1.630145	7.272628
K	1.611168	3.010645	4.961274
K	0.063514	0.110010	7.419456
K	-1.674683	2.900635	9.877637
K	3.476394	0.000000	9.697992
Sn	3.476394	0.000000	6.231380
Sn	-0.040506	0.070158	11.033175
Sn	1.697691	2.940487	8.574993
Sn	-1.657185	3.010645	6.116812
O	-1.666131	11.917759	-5.018280
O	-3.548460	9.156758	-2.356265
O	2.535229	7.401791	0.101917
O	-4.489624	10.537258	2.356265
O	-2.463163	7.526613	0.101917
O	-0.797032	7.651435	-2.560098
K	-1.865225	9.031936	-4.871452
K	-3.412879	6.131300	-2.413270
K	-5.151076	8.921926	0.044911
K	0.000000	6.021290	-0.134734
Sn	0.000000	6.021290	-3.601346
Sn	-3.516900	6.091449	1.200449
Sn	-1.778703	8.961777	-1.257733
Sn	-5.133579	9.031936	-3.715914
O	-1.666131	11.917759	2.356265
O	-3.548460	9.156758	5.018280
O	2.535229	7.401791	7.476461
O	-4.489624	10.537258	9.730809
O	-2.463163	7.526613	7.476461
O	-0.797032	7.651435	4.814446
K	-1.865225	9.031936	2.503093
K	-3.412879	6.131300	4.961274
K	-5.151076	8.921926	7.419456
K	0.000000	6.021290	7.239811
Sn	0.000000	6.021290	3.773198
Sn	-3.516900	6.091449	8.574993
Sn	-1.778703	8.961777	6.116812
Sn	-5.133579	9.031936	3.658630
O	8.763050	5.896468	-5.018280
O	6.880721	3.135467	-2.356265
O	12.964410	1.380501	0.101917
O	5.939557	4.515968	2.356265
O	7.966018	1.505323	0.101917
O	9.632148	1.630145	-2.560098
K	8.563956	3.010645	-4.871452
K	7.016302	0.110010	-2.413270
K	5.278105	2.900635	0.044911
K	10.429181	0.000000	-0.134734
Sn	10.429181	0.000000	-3.601346
Sn	6.912281	0.070158	1.200449
Sn	8.650478	2.940487	-1.257733
Sn	5.295602	3.010645	-3.715914
O	8.763050	5.896468	2.356265
O	6.880721	3.135467	5.018280
O	12.964410	1.380501	7.476461
O	5.939557	4.515968	9.730809
O	7.966018	1.505323	7.476461
O	9.632148	1.630145	4.814446
K	8.563956	3.010645	2.503093
K	7.016302	0.110010	4.961274
K	5.278105	2.900635	7.419456
K	10.429181	0.000000	7.239811
Sn	10.429181	0.000000	3.773198
Sn	6.912281	0.070158	8.574993
Sn	8.650478	2.940487	6.116812
Sn	5.295602	3.010645	3.658630
O	5.286656	11.917759	-7.476461
O	3.404328	9.156758	-4.814446
O	9.488017	7.401791	-2.356265
O	2.463163	10.537258	-0.101917
O	4.489624	7.526613	-2.356265
O	6.155755	7.651435	-5.018280
K	5.087562	9.031936	-7.329633
K	3.539908	6.131300	-4.871452
K	1.801711	8.921926	-2.413270
K	6.952787	6.021290	-2.592916
Sn	6.952787	6.021290	-6.059528
Sn	3.435888	6.091449	-1.257733
Sn	5.174084	8.961777	-3.715914
Sn	1.819209	9.031936	-6.174096
O	5.286656	11.917759	-0.101917
O	3.404328	9.156758	2.560098
O	9.488017	7.401791	5.018280
O	2.463163	10.537258	7.272628
O	4.489624	7.526613	5.018280
O	6.155755	7.651435	2.356265
K	5.087562	9.031936	0.044911
K	3.539908	6.131300	2.503093
K	1.801711	8.921926	4.961274
K	6.952787	6.021290	4.781629
Sn	6.952787	6.021290	1.315017
Sn	3.435888	6.091449	6.116812
Sn	5.174084	8.961777	3.658630
Sn	1.819209	9.031936	1.200449
