112

B	0.000000	0.000000	0.000000
B	1.993594	-1.994645	-1.994645
O	2.863120	-1.124870	-1.124870
O	-1.124068	1.124870	-2.864421
O	1.124068	-1.124870	-2.864421
O	0.869526	0.869775	-0.869775
O	5.111257	1.124870	-1.124870
O	0.869526	3.119515	-3.119515
O	3.117662	3.119515	-0.869775
O	3.117662	0.869775	-3.119515
Ru	-0.996797	-0.997323	-2.991968
Ru	2.990391	0.997323	-0.997323
Ru	4.983985	-0.997323	-0.997323
Ru	0.996797	0.997323	-2.991968
B	3.987188	3.989290	0.000000
B	5.980783	1.994645	-1.994645
O	6.850308	2.864421	-1.124870
O	2.863120	5.114160	-2.864421
O	5.111257	2.864421	-2.864421
O	4.856714	4.859066	-0.869775
O	9.098445	5.114160	-1.124870
O	4.856714	7.108806	-3.119515
O	7.104851	7.108806	-0.869775
O	7.104851	4.859066	-3.119515
Ru	2.990391	2.991968	-2.991968
Ru	6.977580	4.986613	-0.997323
Ru	8.971174	2.991968	-0.997323
Ru	4.983985	4.986613	-2.991968
B	-3.987188	0.000000	-3.989290
B	-1.993594	-1.994645	-5.983936
O	-1.124068	-1.124870	-5.114160
O	-5.111257	1.124870	-6.853711
O	-2.863120	-1.124870	-6.853711
O	-3.117662	0.869775	-4.859066
O	1.124068	1.124870	-5.114160
O	-3.117662	3.119515	-7.108806
O	-0.869526	3.119515	-4.859066
O	-0.869526	0.869775	-7.108806
Ru	-4.983985	-0.997323	-6.981258
Ru	-0.996797	0.997323	-4.986613
Ru	0.996797	-0.997323	-4.986613
Ru	-2.990391	0.997323	-6.981258
B	0.000000	3.989290	-3.989290
B	1.993594	1.994645	-5.983936
O	2.863120	2.864421	-5.114160
O	-1.124068	5.114160	-6.853711
O	1.124068	2.864421	-6.853711
O	0.869526	4.859066	-4.859066
O	5.111257	5.114160	-5.114160
O	0.869526	7.108806	-7.108806
O	3.117662	7.108806	-4.859066
O	3.117662	4.859066	-7.108806
Ru	-0.996797	2.991968	-6.981258
Ru	2.990391	4.986613	-4.986613
Ru	4.983985	2.991968	-4.986613
Ru	0.996797	4.986613	-6.981258
B	3.987188	-3.989290	0.000000
B	5.980783	-5.983936	-1.994645
O	6.850308	-5.114160	-1.124870
O	2.863120	-2.864421	-2.864421
O	5.111257	-5.114160	-2.864421
O	4.856714	-3.119515	-0.869775
O	9.098445	-2.864421	-1.124870
O	4.856714	-0.869775	-3.119515
O	7.104851	-0.869775	-0.869775
O	7.104851	-3.119515	-3.119515
Ru	2.990391	-4.986613	-2.991968
Ru	6.977580	-2.991968	-0.997323
Ru	8.971174	-4.986613	-0.997323
Ru	4.983985	-2.991968	-2.991968
B	7.974377	0.000000	0.000000
B	9.967971	-1.994645	-1.994645
O	10.837497	-1.124870	-1.124870
O	6.850308	1.124870	-2.864421
O	9.098445	-1.124870	-2.864421
O	8.843903	0.869775	-0.869775
O	13.085633	1.124870	-1.124870
O	8.843903	3.119515	-3.119515
O	11.092039	3.119515	-0.869775
O	11.092039	0.869775	-3.119515
Ru	6.977580	-0.997323	-2.991968
Ru	10.964768	0.997323	-0.997323
Ru	12.958362	-0.997323	-0.997323
Ru	8.971174	0.997323	-2.991968
B	0.000000	-3.989290	-3.989290
B	1.993594	-5.983936	-5.983936
O	2.863120	-5.114160	-5.114160
O	-1.124068	-2.864421	-6.853711
O	1.124068	-5.114160	-6.853711
O	0.869526	-3.119515	-4.859066
O	5.111257	-2.864421	-5.114160
O	0.869526	-0.869775	-7.108806
O	3.117662	-0.869775	-4.859066
O	3.117662	-3.119515	-7.108806
Ru	-0.996797	-4.986613	-6.981258
Ru	2.990391	-2.991968	-4.986613
Ru	4.983985	-4.986613	-4.986613
Ru	0.996797	-2.991968	-6.981258
B	3.987188	0.000000	-3.989290
B	5.980783	-1.994645	-5.983936
O	6.850308	-1.124870	-5.114160
O	2.863120	1.124870	-6.853711
O	5.111257	-1.124870	-6.853711
O	4.856714	0.869775	-4.859066
O	9.098445	1.124870	-5.114160
O	4.856714	3.119515	-7.108806
O	7.104851	3.119515	-4.859066
O	7.104851	0.869775	-7.108806
Ru	2.990391	-0.997323	-6.981258
Ru	6.977580	0.997323	-4.986613
Ru	8.971174	-0.997323	-4.986613
Ru	4.983985	0.997323	-6.981258
