40

Ni	0.000000	0.000000	0.000000
O	2.206681	2.206681	0.000000
O	2.206681	0.000000	2.206681
O	0.000000	2.206681	2.206681
Sr	2.206681	2.206681	2.206681
Ni	0.000000	0.000000	4.413358
O	2.206681	2.206681	4.413358
O	2.206681	0.000000	6.620039
O	0.000000	2.206681	6.620039
Sr	2.206681	2.206681	6.620039
Ni	0.000000	4.413358	0.000000
O	2.206681	6.620039	0.000000
O	2.206681	4.413358	2.206681
O	0.000000	6.620039	2.206681
Sr	2.206681	6.620039	2.206681
Ni	0.000000	4.413358	4.413358
O	2.206681	6.620039	4.413358
O	2.206681	4.413358	6.620039
O	0.000000	6.620039	6.620039
Sr	2.206681	6.620039	6.620039
Ni	4.413358	0.000000	0.000000
O	6.620039	2.206681	0.000000
O	6.620039	0.000000	2.206681
O	4.413358	2.206681	2.206681
Sr	6.620039	2.206681	2.206681
Ni	4.413358	0.000000	4.413358
O	6.620039	2.206681	4.413358
O	6.620039	0.000000	6.620039
O	4.413358	2.206681	6.620039
Sr	6.620039	2.206681	6.620039
Ni	4.413358	4.413358	0.000000
O	6.620039	6.620039	0.000000
O	6.620039	4.413358	2.206681
O	4.413358	6.620039	2.206681
Sr	6.620039	6.620039	2.206681
Ni	4.413358	4.413358	4.413358
O	6.620039	6.620039	4.413358
O	6.620039	4.413358	6.620039
O	4.413358	6.620039	6.620039
Sr	6.620039	6.620039	6.620039
