40

Ba	0.000000	0.000000	0.000000
Nb	2.062530	2.062530	2.062530
O	2.062530	0.000000	2.062530
O	0.000000	2.062530	2.062530
O	2.062530	2.062530	0.000000
Ba	0.000000	0.000000	4.125072
Nb	2.062530	2.062530	6.187602
O	2.062530	0.000000	6.187602
O	0.000000	2.062530	6.187602
O	2.062530	2.062530	4.125072
Ba	0.000000	4.125072	0.000000
Nb	2.062530	6.187602	2.062530
O	2.062530	4.125072	2.062530
O	0.000000	6.187602	2.062530
O	2.062530	6.187602	0.000000
Ba	0.000000	4.125072	4.125072
Nb	2.062530	6.187602	6.187602
O	2.062530	4.125072	6.187602
O	0.000000	6.187602	6.187602
O	2.062530	6.187602	4.125072
Ba	4.125072	0.000000	0.000000
Nb	6.187602	2.062530	2.062530
O	6.187602	0.000000	2.062530
O	4.125072	2.062530	2.062530
O	6.187602	2.062530	0.000000
Ba	4.125072	0.000000	4.125072
Nb	6.187602	2.062530	6.187602
O	6.187602	0.000000	6.187602
O	4.125072	2.062530	6.187602
O	6.187602	2.062530	4.125072
Ba	4.125072	4.125072	0.000000
Nb	6.187602	6.187602	2.062530
O	6.187602	4.125072	2.062530
O	4.125072	6.187602	2.062530
O	6.187602	6.187602	0.000000
Ba	4.125072	4.125072	4.125072
Nb	6.187602	6.187602	6.187602
O	6.187602	4.125072	6.187602
O	4.125072	6.187602	6.187602
O	6.187602	6.187602	4.125072
