40

K	2.302257	2.302257	2.302257
O	0.000000	2.302257	2.302257
O	2.302257	0.000000	2.302257
O	2.302257	2.302257	0.000000
Pb	0.000000	0.000000	0.000000
K	2.302257	2.302257	6.906772
O	0.000000	2.302257	6.906772
O	2.302257	0.000000	6.906772
O	2.302257	2.302257	4.604515
Pb	0.000000	0.000000	4.604515
K	2.302257	6.906772	2.302257
O	0.000000	6.906772	2.302257
O	2.302257	4.604515	2.302257
O	2.302257	6.906772	0.000000
Pb	0.000000	4.604515	0.000000
K	2.302257	6.906772	6.906772
O	0.000000	6.906772	6.906772
O	2.302257	4.604515	6.906772
O	2.302257	6.906772	4.604515
Pb	0.000000	4.604515	4.604515
K	6.906772	2.302257	2.302257
O	4.604515	2.302257	2.302257
O	6.906772	0.000000	2.302257
O	6.906772	2.302257	0.000000
Pb	4.604515	0.000000	0.000000
K	6.906772	2.302257	6.906772
O	4.604515	2.302257	6.906772
O	6.906772	0.000000	6.906772
O	6.906772	2.302257	4.604515
Pb	4.604515	0.000000	4.604515
K	6.906772	6.906772	2.302257
O	4.604515	6.906772	2.302257
O	6.906772	4.604515	2.302257
O	6.906772	6.906772	0.000000
Pb	4.604515	4.604515	0.000000
K	6.906772	6.906772	6.906772
O	4.604515	6.906772	6.906772
O	6.906772	4.604515	6.906772
O	6.906772	6.906772	4.604515
Pb	4.604515	4.604515	4.604515
