40

K	2.296050	2.296050	2.296050
O	0.000000	2.296050	2.296050
O	2.296050	0.000000	2.296050
O	2.296050	2.296050	0.000000
Pb	0.000000	0.000000	0.000000
K	2.296050	2.296050	6.888149
O	0.000000	2.296050	6.888149
O	2.296050	0.000000	6.888149
O	2.296050	2.296050	4.592099
Pb	0.000000	0.000000	4.592099
K	2.296050	6.888149	2.296050
O	0.000000	6.888149	2.296050
O	2.296050	4.592099	2.296050
O	2.296050	6.888149	0.000000
Pb	0.000000	4.592099	0.000000
K	2.296050	6.888149	6.888149
O	0.000000	6.888149	6.888149
O	2.296050	4.592099	6.888149
O	2.296050	6.888149	4.592099
Pb	0.000000	4.592099	4.592099
K	6.888149	2.296050	2.296050
O	4.592099	2.296050	2.296050
O	6.888149	0.000000	2.296050
O	6.888149	2.296050	0.000000
Pb	4.592099	0.000000	0.000000
K	6.888149	2.296050	6.888149
O	4.592099	2.296050	6.888149
O	6.888149	0.000000	6.888149
O	6.888149	2.296050	4.592099
Pb	4.592099	0.000000	4.592099
K	6.888149	6.888149	2.296050
O	4.592099	6.888149	2.296050
O	6.888149	4.592099	2.296050
O	6.888149	6.888149	0.000000
Pb	4.592099	4.592099	0.000000
K	6.888149	6.888149	6.888149
O	4.592099	6.888149	6.888149
O	6.888149	4.592099	6.888149
O	6.888149	6.888149	4.592099
Pb	4.592099	4.592099	4.592099
