40

O	1.926160	1.926160	0.000000
O	0.000000	1.926160	1.926160
O	1.926160	0.000000	1.926160
Os_pv	0.000000	0.000000	0.000000
Ti	1.926160	1.926160	1.926160
O	1.926160	1.926160	3.852315
O	0.000000	1.926160	5.778475
O	1.926160	0.000000	5.778475
Os_pv	0.000000	0.000000	3.852315
Ti	1.926160	1.926160	5.778475
O	1.926160	5.778475	0.000000
O	0.000000	5.778475	1.926160
O	1.926160	3.852315	1.926160
Os_pv	0.000000	3.852315	0.000000
Ti	1.926160	5.778475	1.926160
O	1.926160	5.778475	3.852315
O	0.000000	5.778475	5.778475
O	1.926160	3.852315	5.778475
Os_pv	0.000000	3.852315	3.852315
Ti	1.926160	5.778475	5.778475
O	5.778475	1.926160	0.000000
O	3.852315	1.926160	1.926160
O	5.778475	0.000000	1.926160
Os_pv	3.852315	0.000000	0.000000
Ti	5.778475	1.926160	1.926160
O	5.778475	1.926160	3.852315
O	3.852315	1.926160	5.778475
O	5.778475	0.000000	5.778475
Os_pv	3.852315	0.000000	3.852315
Ti	5.778475	1.926160	5.778475
O	5.778475	5.778475	0.000000
O	3.852315	5.778475	1.926160
O	5.778475	3.852315	1.926160
Os_pv	3.852315	3.852315	0.000000
Ti	5.778475	5.778475	1.926160
O	5.778475	5.778475	3.852315
O	3.852315	5.778475	5.778475
O	5.778475	3.852315	5.778475
Os_pv	3.852315	3.852315	3.852315
Ti	5.778475	5.778475	5.778475
