40

Lu	2.082181	2.082181	2.082181
O	2.082181	2.082181	0.000000
O	2.082181	0.000000	2.082181
O	0.000000	2.082181	2.082181
Sc	0.000000	0.000000	0.000000
Lu	2.082181	2.082181	6.246543
O	2.082181	2.082181	4.164362
O	2.082181	0.000000	6.246543
O	0.000000	2.082181	6.246543
Sc	0.000000	0.000000	4.164362
Lu	2.082181	6.246543	2.082181
O	2.082181	6.246543	0.000000
O	2.082181	4.164362	2.082181
O	0.000000	6.246543	2.082181
Sc	0.000000	4.164362	0.000000
Lu	2.082181	6.246543	6.246543
O	2.082181	6.246543	4.164362
O	2.082181	4.164362	6.246543
O	0.000000	6.246543	6.246543
Sc	0.000000	4.164362	4.164362
Lu	6.246543	2.082181	2.082181
O	6.246543	2.082181	0.000000
O	6.246543	0.000000	2.082181
O	4.164362	2.082181	2.082181
Sc	4.164362	0.000000	0.000000
Lu	6.246543	2.082181	6.246543
O	6.246543	2.082181	4.164362
O	6.246543	0.000000	6.246543
O	4.164362	2.082181	6.246543
Sc	4.164362	0.000000	4.164362
Lu	6.246543	6.246543	2.082181
O	6.246543	6.246543	0.000000
O	6.246543	4.164362	2.082181
O	4.164362	6.246543	2.082181
Sc	4.164362	4.164362	0.000000
Lu	6.246543	6.246543	6.246543
O	6.246543	6.246543	4.164362
O	6.246543	4.164362	6.246543
O	4.164362	6.246543	6.246543
Sc	4.164362	4.164362	4.164362
