112

Er	0.000000	0.000000	0.000000
Er	2.490171	-2.490414	-2.490414
O	1.240256	1.240691	-1.240691
O	3.730417	-1.249723	-1.249723
O	-1.249916	1.249723	-3.731115
O	1.249916	-1.249723	-3.731115
O	1.240256	3.740148	-3.740148
O	3.740087	3.740148	-1.240691
O	3.740087	1.240691	-3.740148
O	6.230258	1.249723	-1.249723
Sr	-1.245081	-1.245212	-3.735627
Sr	1.245081	1.245212	-3.735627
Sr	6.225423	-1.245212	-1.245212
Sr	3.735252	1.245212	-1.245212
Er	4.980341	4.980838	0.000000
Er	7.470512	2.490424	-2.490414
O	6.220597	6.221529	-1.240691
O	8.710758	3.731115	-1.249723
O	3.730426	6.230562	-3.731115
O	6.230257	3.731115	-3.731115
O	6.220597	8.720986	-3.740148
O	8.720428	8.720986	-1.240691
O	8.720428	6.221529	-3.740148
O	11.210599	6.230562	-1.249723
Sr	3.735261	3.735626	-3.735627
Sr	6.225422	6.226050	-3.735627
Sr	11.205764	3.735626	-1.245212
Sr	8.715593	6.226050	-1.245212
Er	-4.980341	0.000000	-4.980838
Er	-2.490170	-2.490414	-7.471253
O	-3.740086	1.240691	-6.221529
O	-1.249924	-1.249723	-6.230562
O	-6.230257	1.249723	-8.711954
O	-3.730426	-1.249723	-8.711954
O	-3.740086	3.740148	-8.720986
O	-1.240254	3.740148	-6.221529
O	-1.240255	1.240691	-8.720986
O	1.249917	1.249723	-6.230562
Sr	-6.225422	-1.245212	-8.716465
Sr	-3.735261	1.245212	-8.716465
Sr	1.245082	-1.245212	-6.226050
Sr	-1.245089	1.245212	-6.226050
Er	0.000000	4.980838	-4.980838
Er	2.490171	2.490424	-7.471253
O	1.240256	6.221529	-6.221529
O	3.730417	3.731115	-6.230562
O	-1.249916	6.230562	-8.711954
O	1.249916	3.731115	-8.711954
O	1.240256	8.720986	-8.720986
O	3.740087	8.720986	-6.221529
O	3.740087	6.221529	-8.720986
O	6.230258	6.230562	-6.230562
Sr	-1.245081	3.735626	-8.716465
Sr	1.245081	6.226050	-8.716465
Sr	6.225423	3.735626	-6.226050
Sr	3.735252	6.226050	-6.226050
Er	4.980341	-4.980838	0.000000
Er	7.470512	-7.471253	-2.490414
O	6.220597	-3.740147	-1.240691
O	8.710758	-6.230562	-1.249723
O	3.730426	-3.731115	-3.731115
O	6.230257	-6.230562	-3.731115
O	6.220597	-1.240691	-3.740148
O	8.720428	-1.240691	-1.240691
O	8.720428	-3.740147	-3.740148
O	11.210599	-3.731115	-1.249723
Sr	3.735261	-6.226050	-3.735627
Sr	6.225422	-3.735626	-3.735627
Sr	11.205764	-6.226050	-1.245212
Sr	8.715593	-3.735626	-1.245212
Er	9.960682	0.000000	0.000000
Er	12.450854	-2.490414	-2.490414
O	11.200938	1.240691	-1.240691
O	13.691099	-1.249723	-1.249723
O	8.710767	1.249723	-3.731115
O	11.210598	-1.249723	-3.731115
O	11.200938	3.740148	-3.740148
O	13.700769	3.740148	-1.240691
O	13.700769	1.240691	-3.740148
O	16.190940	1.249723	-1.249723
Sr	8.715602	-1.245212	-3.735627
Sr	11.205763	1.245212	-3.735627
Sr	16.186106	-1.245212	-1.245212
Sr	13.695934	1.245212	-1.245212
Er	0.000000	-4.980838	-4.980838
Er	2.490171	-7.471253	-7.471253
O	1.240256	-3.740147	-6.221529
O	3.730417	-6.230562	-6.230562
O	-1.249916	-3.731115	-8.711954
O	1.249916	-6.230562	-8.711954
O	1.240256	-1.240691	-8.720986
O	3.740087	-1.240691	-6.221529
O	3.740087	-3.740147	-8.720986
O	6.230258	-3.731115	-6.230562
Sr	-1.245081	-6.226050	-8.716465
Sr	1.245081	-3.735626	-8.716465
Sr	6.225423	-6.226050	-6.226050
Sr	3.735252	-3.735626	-6.226050
Er	4.980341	0.000000	-4.980838
Er	7.470512	-2.490414	-7.471253
O	6.220597	1.240691	-6.221529
O	8.710758	-1.249723	-6.230562
O	3.730426	1.249723	-8.711954
O	6.230257	-1.249723	-8.711954
O	6.220597	3.740148	-8.720986
O	8.720428	3.740148	-6.221529
O	8.720428	1.240691	-8.720986
O	11.210599	1.249723	-6.230562
Sr	3.735261	-1.245212	-8.716465
Sr	6.225422	1.245212	-8.716465
Sr	11.205764	-1.245212	-6.226050
Sr	8.715593	1.245212	-6.226050
