40

Ca	2.073670	2.073670	2.073670
O	0.000000	2.073670	2.073670
O	2.073670	0.000000	2.073670
O	2.073670	2.073670	0.000000
Zr	0.000000	0.000000	0.000000
Ca	2.073670	2.073670	6.221011
O	0.000000	2.073670	6.221011
O	2.073670	0.000000	6.221011
O	2.073670	2.073670	4.147340
Zr	0.000000	0.000000	4.147340
Ca	2.073670	6.221011	2.073670
O	0.000000	6.221011	2.073670
O	2.073670	4.147340	2.073670
O	2.073670	6.221011	0.000000
Zr	0.000000	4.147340	0.000000
Ca	2.073670	6.221011	6.221011
O	0.000000	6.221011	6.221011
O	2.073670	4.147340	6.221011
O	2.073670	6.221011	4.147340
Zr	0.000000	4.147340	4.147340
Ca	6.221011	2.073670	2.073670
O	4.147340	2.073670	2.073670
O	6.221011	0.000000	2.073670
O	6.221011	2.073670	0.000000
Zr	4.147340	0.000000	0.000000
Ca	6.221011	2.073670	6.221011
O	4.147340	2.073670	6.221011
O	6.221011	0.000000	6.221011
O	6.221011	2.073670	4.147340
Zr	4.147340	0.000000	4.147340
Ca	6.221011	6.221011	2.073670
O	4.147340	6.221011	2.073670
O	6.221011	4.147340	2.073670
O	6.221011	6.221011	0.000000
Zr	4.147340	4.147340	0.000000
Ca	6.221011	6.221011	6.221011
O	4.147340	6.221011	6.221011
O	6.221011	4.147340	6.221011
O	6.221011	6.221011	4.147340
Zr	4.147340	4.147340	4.147340
