40

Ca	0.000000	0.000000	0.000000
O	2.062316	2.062316	0.000000
O	0.000000	2.062316	2.062316
O	2.062316	0.000000	2.062316
Zr	2.047316	2.062316	2.062316
Ca	0.000000	0.000000	4.124632
O	2.062316	2.062316	4.124632
O	0.000000	2.062316	6.186948
O	2.062316	0.000000	6.186948
Zr	2.047316	2.062316	6.186948
Ca	0.000000	4.124632	0.000000
O	2.062316	6.186948	0.000000
O	0.000000	6.186948	2.062316
O	2.062316	4.124632	2.062316
Zr	2.047316	6.186948	2.062316
Ca	0.000000	4.124632	4.124632
O	2.062316	6.186948	4.124632
O	0.000000	6.186948	6.186948
O	2.062316	4.124632	6.186948
Zr	2.047316	6.186948	6.186948
Ca	4.124632	0.000000	0.000000
O	6.186948	2.062316	0.000000
O	4.124632	2.062316	2.062316
O	6.186948	0.000000	2.062316
Zr	6.171948	2.062316	2.062316
Ca	4.124632	0.000000	4.124632
O	6.186948	2.062316	4.124632
O	4.124632	2.062316	6.186948
O	6.186948	0.000000	6.186948
Zr	6.171948	2.062316	6.186948
Ca	4.124632	4.124632	0.000000
O	6.186948	6.186948	0.000000
O	4.124632	6.186948	2.062316
O	6.186948	4.124632	2.062316
Zr	6.171948	6.186948	2.062316
Ca	4.124632	4.124632	4.124632
O	6.186948	6.186948	4.124632
O	4.124632	6.186948	6.186948
O	6.186948	4.124632	6.186948
Zr	6.171948	6.186948	6.186948
