112

Ag	0.000000	0.000000	0.000000
Ag	2.312773	-2.313199	-2.313199
Cd	-1.156386	-1.156600	-3.469799
Cd	3.469159	1.156600	-1.156600
Cd	5.781931	-1.156600	-1.156600
Cd	1.156386	1.156600	-3.469799
O	3.525792	-1.099145	-1.099145
O	-1.099753	1.099145	-3.527253
O	1.099753	-1.099145	-3.527253
O	1.213019	1.214054	-1.214054
O	5.725298	1.099145	-1.099145
O	1.213019	3.412344	-3.412344
O	3.412526	3.412344	-1.214054
O	3.412526	1.214054	-3.412344
Ag	4.625545	4.626398	0.000000
Ag	6.938318	2.313199	-2.313199
Cd	3.469159	3.469799	-3.469799
Cd	8.094704	5.782998	-1.156600
Cd	10.407476	3.469799	-1.156600
Cd	5.781931	5.782998	-3.469799
O	8.151337	3.527253	-1.099145
O	3.525792	5.725543	-3.527253
O	5.725299	3.527253	-3.527253
O	5.838564	5.840452	-1.214054
O	10.350844	5.725543	-1.099145
O	5.838564	8.038743	-3.412344
O	8.038071	8.038743	-1.214054
O	8.038071	5.840452	-3.412344
Ag	-4.625545	0.000000	-4.626398
Ag	-2.312773	-2.313199	-6.939598
Cd	-5.781931	-1.156600	-8.096197
Cd	-1.156386	1.156600	-5.782998
Cd	1.156386	-1.156600	-5.782998
Cd	-3.469159	1.156600	-8.096197
O	-1.099753	-1.099145	-5.725543
O	-5.725298	1.099145	-8.153652
O	-3.525792	-1.099145	-8.153652
O	-3.412526	1.214054	-5.840452
O	1.099753	1.099145	-5.725543
O	-3.412526	3.412344	-8.038743
O	-1.213019	3.412344	-5.840452
O	-1.213019	1.214054	-8.038743
Ag	0.000000	4.626398	-4.626398
Ag	2.312773	2.313199	-6.939598
Cd	-1.156386	3.469799	-8.096197
Cd	3.469159	5.782998	-5.782998
Cd	5.781931	3.469799	-5.782998
Cd	1.156386	5.782998	-8.096197
O	3.525792	3.527253	-5.725543
O	-1.099753	5.725543	-8.153652
O	1.099753	3.527253	-8.153652
O	1.213019	5.840452	-5.840452
O	5.725298	5.725543	-5.725543
O	1.213019	8.038743	-8.038743
O	3.412526	8.038743	-5.840452
O	3.412526	5.840452	-8.038743
Ag	4.625545	-4.626398	0.000000
Ag	6.938318	-6.939598	-2.313199
Cd	3.469159	-5.782998	-3.469799
Cd	8.094704	-3.469799	-1.156600
Cd	10.407476	-5.782998	-1.156600
Cd	5.781931	-3.469799	-3.469799
O	8.151337	-5.725543	-1.099145
O	3.525792	-3.527253	-3.527253
O	5.725299	-5.725543	-3.527253
O	5.838564	-3.412344	-1.214054
O	10.350844	-3.527253	-1.099145
O	5.838564	-1.214054	-3.412344
O	8.038071	-1.214054	-1.214054
O	8.038071	-3.412344	-3.412344
Ag	9.251090	0.000000	0.000000
Ag	11.563863	-2.313199	-2.313199
Cd	8.094704	-1.156600	-3.469799
Cd	12.720249	1.156600	-1.156600
Cd	15.033022	-1.156600	-1.156600
Cd	10.407476	1.156600	-3.469799
O	12.776882	-1.099145	-1.099145
O	8.151337	1.099145	-3.527253
O	10.350844	-1.099145	-3.527253
O	10.464109	1.214054	-1.214054
O	14.976389	1.099145	-1.099145
O	10.464109	3.412344	-3.412344
O	12.663616	3.412344	-1.214054
O	12.663616	1.214054	-3.412344
Ag	0.000000	-4.626398	-4.626398
Ag	2.312773	-6.939598	-6.939598
Cd	-1.156386	-5.782998	-8.096197
Cd	3.469159	-3.469799	-5.782998
Cd	5.781931	-5.782998	-5.782998
Cd	1.156386	-3.469799	-8.096197
O	3.525792	-5.725543	-5.725543
O	-1.099753	-3.527253	-8.153652
O	1.099753	-5.725543	-8.153652
O	1.213019	-3.412344	-5.840452
O	5.725298	-3.527253	-5.725543
O	1.213019	-1.214054	-8.038743
O	3.412526	-1.214054	-5.840452
O	3.412526	-3.412344	-8.038743
Ag	4.625545	0.000000	-4.626398
Ag	6.938318	-2.313199	-6.939598
Cd	3.469159	-1.156600	-8.096197
Cd	8.094704	1.156600	-5.782998
Cd	10.407476	-1.156600	-5.782998
Cd	5.781931	1.156600	-8.096197
O	8.151337	-1.099145	-5.725543
O	3.525792	1.099145	-8.153652
O	5.725299	-1.099145	-8.153652
O	5.838564	1.214054	-5.840452
O	10.350844	1.099145	-5.725543
O	5.838564	3.412344	-8.038743
O	8.038071	3.412344	-5.840452
O	8.038071	1.214054	-8.038743
