40

O	0.000000	1.972599	1.972599
O	1.972599	0.000000	1.972599
O	1.972599	1.972599	0.000000
P	0.000000	0.000000	0.000000
W	1.972599	1.972599	1.972599
O	0.000000	1.972599	5.917796
O	1.972599	0.000000	5.917796
O	1.972599	1.972599	3.945197
P	0.000000	0.000000	3.945197
W	1.972599	1.972599	5.917796
O	0.000000	5.917796	1.972599
O	1.972599	3.945197	1.972599
O	1.972599	5.917796	0.000000
P	0.000000	3.945197	0.000000
W	1.972599	5.917796	1.972599
O	0.000000	5.917796	5.917796
O	1.972599	3.945197	5.917796
O	1.972599	5.917796	3.945197
P	0.000000	3.945197	3.945197
W	1.972599	5.917796	5.917796
O	3.945197	1.972599	1.972599
O	5.917796	0.000000	1.972599
O	5.917796	1.972599	0.000000
P	3.945197	0.000000	0.000000
W	5.917796	1.972599	1.972599
O	3.945197	1.972599	5.917796
O	5.917796	0.000000	5.917796
O	5.917796	1.972599	3.945197
P	3.945197	0.000000	3.945197
W	5.917796	1.972599	5.917796
O	3.945197	5.917796	1.972599
O	5.917796	3.945197	1.972599
O	5.917796	5.917796	0.000000
P	3.945197	3.945197	0.000000
W	5.917796	5.917796	1.972599
O	3.945197	5.917796	5.917796
O	5.917796	3.945197	5.917796
O	5.917796	5.917796	3.945197
P	3.945197	3.945197	3.945197
W	5.917796	5.917796	5.917796
