40

I	2.065001	2.065001	2.065001
Ni	0.000000	0.000000	0.000000
O	0.000000	2.065001	2.065001
O	2.065001	0.000000	2.065001
O	2.065001	2.065001	0.000000
I	2.065001	2.065001	6.195003
Ni	0.000000	0.000000	4.130002
O	0.000000	2.065001	6.195003
O	2.065001	0.000000	6.195003
O	2.065001	2.065001	4.130002
I	2.065001	6.195003	2.065001
Ni	0.000000	4.130002	0.000000
O	0.000000	6.195003	2.065001
O	2.065001	4.130002	2.065001
O	2.065001	6.195003	0.000000
I	2.065001	6.195003	6.195003
Ni	0.000000	4.130002	4.130002
O	0.000000	6.195003	6.195003
O	2.065001	4.130002	6.195003
O	2.065001	6.195003	4.130002
I	6.195003	2.065001	2.065001
Ni	4.130002	0.000000	0.000000
O	4.130002	2.065001	2.065001
O	6.195003	0.000000	2.065001
O	6.195003	2.065001	0.000000
I	6.195003	2.065001	6.195003
Ni	4.130002	0.000000	4.130002
O	4.130002	2.065001	6.195003
O	6.195003	0.000000	6.195003
O	6.195003	2.065001	4.130002
I	6.195003	6.195003	2.065001
Ni	4.130002	4.130002	0.000000
O	4.130002	6.195003	2.065001
O	6.195003	4.130002	2.065001
O	6.195003	6.195003	0.000000
I	6.195003	6.195003	6.195003
Ni	4.130002	4.130002	4.130002
O	4.130002	6.195003	6.195003
O	6.195003	4.130002	6.195003
O	6.195003	6.195003	4.130002
