40

Be	0.000000	0.000000	0.000000
O	1.923720	0.000000	1.923720
O	0.000000	1.923720	1.923720
O	1.923720	1.923720	0.000000
Pd	1.923720	1.923720	1.923720
Be	0.000000	0.000000	3.847430
O	1.923720	0.000000	5.771150
O	0.000000	1.923720	5.771150
O	1.923720	1.923720	3.847430
Pd	1.923720	1.923720	5.771150
Be	0.000000	3.847430	0.000000
O	1.923720	3.847430	1.923720
O	0.000000	5.771150	1.923720
O	1.923720	5.771150	0.000000
Pd	1.923720	5.771150	1.923720
Be	0.000000	3.847430	3.847430
O	1.923720	3.847430	5.771150
O	0.000000	5.771150	5.771150
O	1.923720	5.771150	3.847430
Pd	1.923720	5.771150	5.771150
Be	3.847430	0.000000	0.000000
O	5.771150	0.000000	1.923720
O	3.847430	1.923720	1.923720
O	5.771150	1.923720	0.000000
Pd	5.771150	1.923720	1.923720
Be	3.847430	0.000000	3.847430
O	5.771150	0.000000	5.771150
O	3.847430	1.923720	5.771150
O	5.771150	1.923720	3.847430
Pd	5.771150	1.923720	5.771150
Be	3.847430	3.847430	0.000000
O	5.771150	3.847430	1.923720
O	3.847430	5.771150	1.923720
O	5.771150	5.771150	0.000000
Pd	5.771150	5.771150	1.923720
Be	3.847430	3.847430	3.847430
O	5.771150	3.847430	5.771150
O	3.847430	5.771150	5.771150
O	5.771150	5.771150	3.847430
Pd	5.771150	5.771150	5.771150
