40

Cs	2.260692	2.260692	2.260692
O	0.000000	2.260692	2.260692
O	2.260692	0.000000	2.260692
O	2.260692	2.260692	0.000000
Tc	0.000000	0.000000	0.000000
Cs	2.260692	2.260692	6.782077
O	0.000000	2.260692	6.782077
O	2.260692	0.000000	6.782077
O	2.260692	2.260692	4.521385
Tc	0.000000	0.000000	4.521385
Cs	2.260692	6.782077	2.260692
O	0.000000	6.782077	2.260692
O	2.260692	4.521385	2.260692
O	2.260692	6.782077	0.000000
Tc	0.000000	4.521385	0.000000
Cs	2.260692	6.782077	6.782077
O	0.000000	6.782077	6.782077
O	2.260692	4.521385	6.782077
O	2.260692	6.782077	4.521385
Tc	0.000000	4.521385	4.521385
Cs	6.782077	2.260692	2.260692
O	4.521385	2.260692	2.260692
O	6.782077	0.000000	2.260692
O	6.782077	2.260692	0.000000
Tc	4.521385	0.000000	0.000000
Cs	6.782077	2.260692	6.782077
O	4.521385	2.260692	6.782077
O	6.782077	0.000000	6.782077
O	6.782077	2.260692	4.521385
Tc	4.521385	0.000000	4.521385
Cs	6.782077	6.782077	2.260692
O	4.521385	6.782077	2.260692
O	6.782077	4.521385	2.260692
O	6.782077	6.782077	0.000000
Tc	4.521385	4.521385	0.000000
Cs	6.782077	6.782077	6.782077
O	4.521385	6.782077	6.782077
O	6.782077	4.521385	6.782077
O	6.782077	6.782077	4.521385
Tc	4.521385	4.521385	4.521385
