40

Cu	1.915578	1.915578	1.915578
Nd	0.000000	0.000000	0.000000
O	1.915578	1.915578	0.000000
O	1.915578	0.000000	1.915578
O	0.000000	1.915578	1.915578
Cu	1.915578	1.915578	5.746735
Nd	0.000000	0.000000	3.831157
O	1.915578	1.915578	3.831157
O	1.915578	0.000000	5.746735
O	0.000000	1.915578	5.746735
Cu	1.915578	5.746735	1.915578
Nd	0.000000	3.831157	0.000000
O	1.915578	5.746735	0.000000
O	1.915578	3.831157	1.915578
O	0.000000	5.746735	1.915578
Cu	1.915578	5.746735	5.746735
Nd	0.000000	3.831157	3.831157
O	1.915578	5.746735	3.831157
O	1.915578	3.831157	5.746735
O	0.000000	5.746735	5.746735
Cu	5.746735	1.915578	1.915578
Nd	3.831157	0.000000	0.000000
O	5.746735	1.915578	0.000000
O	5.746735	0.000000	1.915578
O	3.831157	1.915578	1.915578
Cu	5.746735	1.915578	5.746735
Nd	3.831157	0.000000	3.831157
O	5.746735	1.915578	3.831157
O	5.746735	0.000000	5.746735
O	3.831157	1.915578	5.746735
Cu	5.746735	5.746735	1.915578
Nd	3.831157	3.831157	0.000000
O	5.746735	5.746735	0.000000
O	5.746735	3.831157	1.915578
O	3.831157	5.746735	1.915578
Cu	5.746735	5.746735	5.746735
Nd	3.831157	3.831157	3.831157
O	5.746735	5.746735	3.831157
O	5.746735	3.831157	5.746735
O	3.831157	5.746735	5.746735
