40

Ga	1.879037	1.879037	1.879037
O	1.879037	1.879037	0.000000
O	1.879037	0.000000	1.879037
O	0.000000	1.879037	1.879037
V	0.000000	0.000000	0.000000
Ga	1.879037	1.879037	5.637108
O	1.879037	1.879037	3.758071
O	1.879037	0.000000	5.637108
O	0.000000	1.879037	5.637108
V	0.000000	0.000000	3.758071
Ga	1.879037	5.637108	1.879037
O	1.879037	5.637108	0.000000
O	1.879037	3.758071	1.879037
O	0.000000	5.637108	1.879037
V	0.000000	3.758071	0.000000
Ga	1.879037	5.637108	5.637108
O	1.879037	5.637108	3.758071
O	1.879037	3.758071	5.637108
O	0.000000	5.637108	5.637108
V	0.000000	3.758071	3.758071
Ga	5.637108	1.879037	1.879037
O	5.637108	1.879037	0.000000
O	5.637108	0.000000	1.879037
O	3.758071	1.879037	1.879037
V	3.758071	0.000000	0.000000
Ga	5.637108	1.879037	5.637108
O	5.637108	1.879037	3.758071
O	5.637108	0.000000	5.637108
O	3.758071	1.879037	5.637108
V	3.758071	0.000000	3.758071
Ga	5.637108	5.637108	1.879037
O	5.637108	5.637108	0.000000
O	5.637108	3.758071	1.879037
O	3.758071	5.637108	1.879037
V	3.758071	3.758071	0.000000
Ga	5.637108	5.637108	5.637108
O	5.637108	5.637108	3.758071
O	5.637108	3.758071	5.637108
O	3.758071	5.637108	5.637108
V	3.758071	3.758071	3.758071
