40

Al	0.000000	0.000000	0.000000
Ir	1.949570	1.949570	1.949570
O	1.949570	0.000000	1.949570
O	0.000000	1.949570	1.949570
O	1.949570	1.949570	0.000000
Al	0.000000	0.000000	3.899124
Ir	1.949570	1.949570	5.848694
O	1.949570	0.000000	5.848694
O	0.000000	1.949570	5.848694
O	1.949570	1.949570	3.899124
Al	0.000000	3.899124	0.000000
Ir	1.949570	5.848694	1.949570
O	1.949570	3.899124	1.949570
O	0.000000	5.848694	1.949570
O	1.949570	5.848694	0.000000
Al	0.000000	3.899124	3.899124
Ir	1.949570	5.848694	5.848694
O	1.949570	3.899124	5.848694
O	0.000000	5.848694	5.848694
O	1.949570	5.848694	3.899124
Al	3.899124	0.000000	0.000000
Ir	5.848694	1.949570	1.949570
O	5.848694	0.000000	1.949570
O	3.899124	1.949570	1.949570
O	5.848694	1.949570	0.000000
Al	3.899124	0.000000	3.899124
Ir	5.848694	1.949570	5.848694
O	5.848694	0.000000	5.848694
O	3.899124	1.949570	5.848694
O	5.848694	1.949570	3.899124
Al	3.899124	3.899124	0.000000
Ir	5.848694	5.848694	1.949570
O	5.848694	3.899124	1.949570
O	3.899124	5.848694	1.949570
O	5.848694	5.848694	0.000000
Al	3.899124	3.899124	3.899124
Ir	5.848694	5.848694	5.848694
O	5.848694	3.899124	5.848694
O	3.899124	5.848694	5.848694
O	5.848694	5.848694	3.899124
