40

O	2.097714	2.097714	0.000000
O	2.097714	0.000000	2.097714
O	0.000000	2.097714	2.097714
Ta	0.000000	0.000000	0.000000
Tm	2.097714	2.097714	2.097714
O	2.097714	2.097714	4.195428
O	2.097714	0.000000	6.293142
O	0.000000	2.097714	6.293142
Ta	0.000000	0.000000	4.195428
Tm	2.097714	2.097714	6.293142
O	2.097714	6.293142	0.000000
O	2.097714	4.195428	2.097714
O	0.000000	6.293142	2.097714
Ta	0.000000	4.195428	0.000000
Tm	2.097714	6.293142	2.097714
O	2.097714	6.293142	4.195428
O	2.097714	4.195428	6.293142
O	0.000000	6.293142	6.293142
Ta	0.000000	4.195428	4.195428
Tm	2.097714	6.293142	6.293142
O	6.293142	2.097714	0.000000
O	6.293142	0.000000	2.097714
O	4.195428	2.097714	2.097714
Ta	4.195428	0.000000	0.000000
Tm	6.293142	2.097714	2.097714
O	6.293142	2.097714	4.195428
O	6.293142	0.000000	6.293142
O	4.195428	2.097714	6.293142
Ta	4.195428	0.000000	4.195428
Tm	6.293142	2.097714	6.293142
O	6.293142	6.293142	0.000000
O	6.293142	4.195428	2.097714
O	4.195428	6.293142	2.097714
Ta	4.195428	4.195428	0.000000
Tm	6.293142	6.293142	2.097714
O	6.293142	6.293142	4.195428
O	6.293142	4.195428	6.293142
O	4.195428	6.293142	6.293142
Ta	4.195428	4.195428	4.195428
Tm	6.293142	6.293142	6.293142
