40

O	2.012833	2.012833	0.000000
O	2.012833	0.000000	2.012833
O	0.000000	2.012833	2.012833
Pd	2.012833	2.012833	2.012833
Tl	0.000000	0.000000	0.000000
O	2.012833	2.012833	4.025665
O	2.012833	0.000000	6.038498
O	0.000000	2.012833	6.038498
Pd	2.012833	2.012833	6.038498
Tl	0.000000	0.000000	4.025665
O	2.012833	6.038498	0.000000
O	2.012833	4.025665	2.012833
O	0.000000	6.038498	2.012833
Pd	2.012833	6.038498	2.012833
Tl	0.000000	4.025665	0.000000
O	2.012833	6.038498	4.025665
O	2.012833	4.025665	6.038498
O	0.000000	6.038498	6.038498
Pd	2.012833	6.038498	6.038498
Tl	0.000000	4.025665	4.025665
O	6.038498	2.012833	0.000000
O	6.038498	0.000000	2.012833
O	4.025665	2.012833	2.012833
Pd	6.038498	2.012833	2.012833
Tl	4.025665	0.000000	0.000000
O	6.038498	2.012833	4.025665
O	6.038498	0.000000	6.038498
O	4.025665	2.012833	6.038498
Pd	6.038498	2.012833	6.038498
Tl	4.025665	0.000000	4.025665
O	6.038498	6.038498	0.000000
O	6.038498	4.025665	2.012833
O	4.025665	6.038498	2.012833
Pd	6.038498	6.038498	2.012833
Tl	4.025665	4.025665	0.000000
O	6.038498	6.038498	4.025665
O	6.038498	4.025665	6.038498
O	4.025665	6.038498	6.038498
Pd	6.038498	6.038498	6.038498
Tl	4.025665	4.025665	4.025665
