112

Gd	0.000000	0.000000	0.000000
Gd	2.241758	-2.243000	-2.243000
O	3.502929	-0.980448	-0.980448
O	-0.980587	0.980448	-3.505551
O	0.980587	-0.980448	-3.505551
O	1.261171	1.262552	-1.262552
O	5.464103	0.980448	-0.980448
O	1.261171	3.223448	-3.223448
O	3.222345	3.223448	-1.262552
O	3.222345	1.262552	-3.223448
Ru	-1.120879	-1.121500	-3.364499
Ru	3.362637	1.121500	-1.121500
Ru	5.604395	-1.121500	-1.121500
Ru	1.120879	1.121500	-3.364499
Gd	4.483516	4.485999	0.000000
Gd	6.725274	2.243000	-2.243000
O	7.986445	3.505551	-0.980448
O	3.502929	5.466447	-3.505551
O	5.464103	3.505551	-3.505551
O	5.744687	5.748551	-1.262552
O	9.947619	5.466447	-0.980448
O	5.744687	7.709447	-3.223448
O	7.705861	7.709447	-1.262552
O	7.705861	5.748551	-3.223448
Ru	3.362637	3.364499	-3.364499
Ru	7.846153	5.607499	-1.121500
Ru	10.087911	3.364499	-1.121500
Ru	5.604395	5.607499	-3.364499
Gd	-4.483516	0.000000	-4.485999
Gd	-2.241758	-2.243000	-6.728999
O	-0.980587	-0.980448	-5.466447
O	-5.464103	0.980448	-7.991550
O	-3.502929	-0.980448	-7.991550
O	-3.222345	1.262552	-5.748551
O	0.980587	0.980448	-5.466447
O	-3.222345	3.223448	-7.709447
O	-1.261171	3.223448	-5.748551
O	-1.261171	1.262552	-7.709447
Ru	-5.604395	-1.121500	-7.850499
Ru	-1.120879	1.121500	-5.607499
Ru	1.120879	-1.121500	-5.607499
Ru	-3.362637	1.121500	-7.850499
Gd	0.000000	4.485999	-4.485999
Gd	2.241758	2.243000	-6.728999
O	3.502929	3.505551	-5.466447
O	-0.980587	5.466447	-7.991550
O	0.980587	3.505551	-7.991550
O	1.261171	5.748551	-5.748551
O	5.464103	5.466447	-5.466447
O	1.261171	7.709447	-7.709447
O	3.222345	7.709447	-5.748551
O	3.222345	5.748551	-7.709447
Ru	-1.120879	3.364499	-7.850499
Ru	3.362637	5.607499	-5.607499
Ru	5.604395	3.364499	-5.607499
Ru	1.120879	5.607499	-7.850499
Gd	4.483516	-4.485999	0.000000
Gd	6.725274	-6.728999	-2.243000
O	7.986445	-5.466447	-0.980448
O	3.502929	-3.505551	-3.505551
O	5.464103	-5.466447	-3.505551
O	5.744687	-3.223448	-1.262552
O	9.947619	-3.505551	-0.980448
O	5.744687	-1.262552	-3.223448
O	7.705861	-1.262552	-1.262552
O	7.705861	-3.223448	-3.223448
Ru	3.362637	-5.607499	-3.364499
Ru	7.846153	-3.364499	-1.121500
Ru	10.087911	-5.607499	-1.121500
Ru	5.604395	-3.364499	-3.364499
Gd	8.967032	0.000000	0.000000
Gd	11.208790	-2.243000	-2.243000
O	12.469961	-0.980448	-0.980448
O	7.986445	0.980448	-3.505551
O	9.947619	-0.980448	-3.505551
O	10.228203	1.262552	-1.262552
O	14.431135	0.980448	-0.980448
O	10.228203	3.223448	-3.223448
O	12.189377	3.223448	-1.262552
O	12.189377	1.262552	-3.223448
Ru	7.846153	-1.121500	-3.364499
Ru	12.329669	1.121500	-1.121500
Ru	14.571427	-1.121500	-1.121500
Ru	10.087911	1.121500	-3.364499
Gd	0.000000	-4.485999	-4.485999
Gd	2.241758	-6.728999	-6.728999
O	3.502929	-5.466447	-5.466447
O	-0.980587	-3.505551	-7.991550
O	0.980587	-5.466447	-7.991550
O	1.261171	-3.223448	-5.748551
O	5.464103	-3.505551	-5.466447
O	1.261171	-1.262552	-7.709447
O	3.222345	-1.262552	-5.748551
O	3.222345	-3.223448	-7.709447
Ru	-1.120879	-5.607499	-7.850499
Ru	3.362637	-3.364499	-5.607499
Ru	5.604395	-5.607499	-5.607499
Ru	1.120879	-3.364499	-7.850499
Gd	4.483516	0.000000	-4.485999
Gd	6.725274	-2.243000	-6.728999
O	7.986445	-0.980448	-5.466447
O	3.502929	0.980448	-7.991550
O	5.464103	-0.980448	-7.991550
O	5.744687	1.262552	-5.748551
O	9.947619	0.980448	-5.466447
O	5.744687	3.223448	-7.709447
O	7.705861	3.223448	-5.748551
O	7.705861	1.262552	-7.709447
Ru	3.362637	-1.121500	-7.850499
Ru	7.846153	1.121500	-5.607499
Ru	10.087911	-1.121500	-5.607499
Ru	5.604395	1.121500	-7.850499
