40

Co	1.850727	1.850727	1.850727
O	1.850727	1.850727	0.000000
O	0.000000	1.850727	1.850727
O	1.850727	0.000000	1.850727
Y	0.000000	0.000000	0.000000
Co	1.850727	1.850727	5.552173
O	1.850727	1.850727	3.701446
O	0.000000	1.850727	5.552173
O	1.850727	0.000000	5.552173
Y	0.000000	0.000000	3.701446
Co	1.850727	5.552173	1.850727
O	1.850727	5.552173	0.000000
O	0.000000	5.552173	1.850727
O	1.850727	3.701446	1.850727
Y	0.000000	3.701446	0.000000
Co	1.850727	5.552173	5.552173
O	1.850727	5.552173	3.701446
O	0.000000	5.552173	5.552173
O	1.850727	3.701446	5.552173
Y	0.000000	3.701446	3.701446
Co	5.552173	1.850727	1.850727
O	5.552173	1.850727	0.000000
O	3.701446	1.850727	1.850727
O	5.552173	0.000000	1.850727
Y	3.701446	0.000000	0.000000
Co	5.552173	1.850727	5.552173
O	5.552173	1.850727	3.701446
O	3.701446	1.850727	5.552173
O	5.552173	0.000000	5.552173
Y	3.701446	0.000000	3.701446
Co	5.552173	5.552173	1.850727
O	5.552173	5.552173	0.000000
O	3.701446	5.552173	1.850727
O	5.552173	3.701446	1.850727
Y	3.701446	3.701446	0.000000
Co	5.552173	5.552173	5.552173
O	5.552173	5.552173	3.701446
O	3.701446	5.552173	5.552173
O	5.552173	3.701446	5.552173
Y	3.701446	3.701446	3.701446
