40

Co	1.863993	1.863993	1.863993
O	0.000000	1.863993	1.863993
O	1.863993	0.000000	1.863993
O	1.863993	1.863993	0.000000
Y	0.000000	0.000000	0.000000
Co	1.863993	1.863993	5.591980
O	0.000000	1.863993	5.591980
O	1.863993	0.000000	5.591980
O	1.863993	1.863993	3.727986
Y	0.000000	0.000000	3.727986
Co	1.863993	5.591980	1.863993
O	0.000000	5.591980	1.863993
O	1.863993	3.727986	1.863993
O	1.863993	5.591980	0.000000
Y	0.000000	3.727986	0.000000
Co	1.863993	5.591980	5.591980
O	0.000000	5.591980	5.591980
O	1.863993	3.727986	5.591980
O	1.863993	5.591980	3.727986
Y	0.000000	3.727986	3.727986
Co	5.591980	1.863993	1.863993
O	3.727986	1.863993	1.863993
O	5.591980	0.000000	1.863993
O	5.591980	1.863993	0.000000
Y	3.727986	0.000000	0.000000
Co	5.591980	1.863993	5.591980
O	3.727986	1.863993	5.591980
O	5.591980	0.000000	5.591980
O	5.591980	1.863993	3.727986
Y	3.727986	0.000000	3.727986
Co	5.591980	5.591980	1.863993
O	3.727986	5.591980	1.863993
O	5.591980	3.727986	1.863993
O	5.591980	5.591980	0.000000
Y	3.727986	3.727986	0.000000
Co	5.591980	5.591980	5.591980
O	3.727986	5.591980	5.591980
O	5.591980	3.727986	5.591980
O	5.591980	5.591980	3.727986
Y	3.727986	3.727986	3.727986
