40

O	2.010774	2.010774	0.000000
O	2.010774	0.000000	2.010774
O	0.000000	2.010774	2.010774
Ta	2.010774	2.010774	2.010774
Zr	0.000000	0.000000	0.000000
O	2.010774	2.010774	4.021548
O	2.010774	0.000000	6.032323
O	0.000000	2.010774	6.032323
Ta	2.010774	2.010774	6.032323
Zr	0.000000	0.000000	4.021548
O	2.010774	6.032323	0.000000
O	2.010774	4.021548	2.010774
O	0.000000	6.032323	2.010774
Ta	2.010774	6.032323	2.010774
Zr	0.000000	4.021548	0.000000
O	2.010774	6.032323	4.021548
O	2.010774	4.021548	6.032323
O	0.000000	6.032323	6.032323
Ta	2.010774	6.032323	6.032323
Zr	0.000000	4.021548	4.021548
O	6.032323	2.010774	0.000000
O	6.032323	0.000000	2.010774
O	4.021548	2.010774	2.010774
Ta	6.032323	2.010774	2.010774
Zr	4.021548	0.000000	0.000000
O	6.032323	2.010774	4.021548
O	6.032323	0.000000	6.032323
O	4.021548	2.010774	6.032323
Ta	6.032323	2.010774	6.032323
Zr	4.021548	0.000000	4.021548
O	6.032323	6.032323	0.000000
O	6.032323	4.021548	2.010774
O	4.021548	6.032323	2.010774
Ta	6.032323	6.032323	2.010774
Zr	4.021548	4.021548	0.000000
O	6.032323	6.032323	4.021548
O	6.032323	4.021548	6.032323
O	4.021548	6.032323	6.032323
Ta	6.032323	6.032323	6.032323
Zr	4.021548	4.021548	4.021548
