40

La	2.211522	2.211522	2.211522
O	2.211522	2.211522	0.000000
O	2.211522	0.000000	2.211522
O	0.000000	2.211522	2.211522
Pd	0.000000	0.000000	0.000000
La	2.211522	2.211522	6.634558
O	2.211522	2.211522	4.423035
O	2.211522	0.000000	6.634558
O	0.000000	2.211522	6.634558
Pd	0.000000	0.000000	4.423035
La	2.211522	6.634558	2.211522
O	2.211522	6.634558	0.000000
O	2.211522	4.423035	2.211522
O	0.000000	6.634558	2.211522
Pd	0.000000	4.423035	0.000000
La	2.211522	6.634558	6.634558
O	2.211522	6.634558	4.423035
O	2.211522	4.423035	6.634558
O	0.000000	6.634558	6.634558
Pd	0.000000	4.423035	4.423035
La	6.634558	2.211522	2.211522
O	6.634558	2.211522	0.000000
O	6.634558	0.000000	2.211522
O	4.423035	2.211522	2.211522
Pd	4.423035	0.000000	0.000000
La	6.634558	2.211522	6.634558
O	6.634558	2.211522	4.423035
O	6.634558	0.000000	6.634558
O	4.423035	2.211522	6.634558
Pd	4.423035	0.000000	4.423035
La	6.634558	6.634558	2.211522
O	6.634558	6.634558	0.000000
O	6.634558	4.423035	2.211522
O	4.423035	6.634558	2.211522
Pd	4.423035	4.423035	0.000000
La	6.634558	6.634558	6.634558
O	6.634558	6.634558	4.423035
O	6.634558	4.423035	6.634558
O	4.423035	6.634558	6.634558
Pd	4.423035	4.423035	4.423035
