40

Mo	0.000000	0.000000	0.000000
O	1.993090	1.993090	0.000000
O	0.000000	1.993090	1.993090
O	1.993090	0.000000	1.993090
Ta	1.993090	1.993090	1.993090
Mo	0.000000	0.000000	3.986177
O	1.993090	1.993090	3.986177
O	0.000000	1.993090	5.979267
O	1.993090	0.000000	5.979267
Ta	1.993090	1.993090	5.979267
Mo	0.000000	3.986177	0.000000
O	1.993090	5.979267	0.000000
O	0.000000	5.979267	1.993090
O	1.993090	3.986177	1.993090
Ta	1.993090	5.979267	1.993090
Mo	0.000000	3.986177	3.986177
O	1.993090	5.979267	3.986177
O	0.000000	5.979267	5.979267
O	1.993090	3.986177	5.979267
Ta	1.993090	5.979267	5.979267
Mo	3.986177	0.000000	0.000000
O	5.979267	1.993090	0.000000
O	3.986177	1.993090	1.993090
O	5.979267	0.000000	1.993090
Ta	5.979267	1.993090	1.993090
Mo	3.986177	0.000000	3.986177
O	5.979267	1.993090	3.986177
O	3.986177	1.993090	5.979267
O	5.979267	0.000000	5.979267
Ta	5.979267	1.993090	5.979267
Mo	3.986177	3.986177	0.000000
O	5.979267	5.979267	0.000000
O	3.986177	5.979267	1.993090
O	5.979267	3.986177	1.993090
Ta	5.979267	5.979267	1.993090
Mo	3.986177	3.986177	3.986177
O	5.979267	5.979267	3.986177
O	3.986177	5.979267	5.979267
O	5.979267	3.986177	5.979267
Ta	5.979267	5.979267	5.979267
