40

Ga	1.895360	1.895360	1.895360
O	1.895360	1.895360	0.000000
O	0.000000	1.895360	1.895360
O	1.895360	0.000000	1.895360
Tc	0.000000	0.000000	0.000000
Ga	1.895360	1.895360	5.686080
O	1.895360	1.895360	3.790720
O	0.000000	1.895360	5.686080
O	1.895360	0.000000	5.686080
Tc	0.000000	0.000000	3.790720
Ga	1.895360	5.686080	1.895360
O	1.895360	5.686080	0.000000
O	0.000000	5.686080	1.895360
O	1.895360	3.790720	1.895360
Tc	0.000000	3.790720	0.000000
Ga	1.895360	5.686080	5.686080
O	1.895360	5.686080	3.790720
O	0.000000	5.686080	5.686080
O	1.895360	3.790720	5.686080
Tc	0.000000	3.790720	3.790720
Ga	5.686080	1.895360	1.895360
O	5.686080	1.895360	0.000000
O	3.790720	1.895360	1.895360
O	5.686080	0.000000	1.895360
Tc	3.790720	0.000000	0.000000
Ga	5.686080	1.895360	5.686080
O	5.686080	1.895360	3.790720
O	3.790720	1.895360	5.686080
O	5.686080	0.000000	5.686080
Tc	3.790720	0.000000	3.790720
Ga	5.686080	5.686080	1.895360
O	5.686080	5.686080	0.000000
O	3.790720	5.686080	1.895360
O	5.686080	3.790720	1.895360
Tc	3.790720	3.790720	0.000000
Ga	5.686080	5.686080	5.686080
O	5.686080	5.686080	3.790720
O	3.790720	5.686080	5.686080
O	5.686080	3.790720	5.686080
Tc	3.790720	3.790720	3.790720
