40

O	0.000000	2.069036	2.069036
O	2.069036	0.000000	2.069036
O	2.069036	2.069036	0.000000
Sc	0.000000	0.000000	0.000000
Zr	2.069036	2.069036	2.069036
O	0.000000	2.069036	6.207107
O	2.069036	0.000000	6.207107
O	2.069036	2.069036	4.138072
Sc	0.000000	0.000000	4.138072
Zr	2.069036	2.069036	6.207107
O	0.000000	6.207107	2.069036
O	2.069036	4.138072	2.069036
O	2.069036	6.207107	0.000000
Sc	0.000000	4.138072	0.000000
Zr	2.069036	6.207107	2.069036
O	0.000000	6.207107	6.207107
O	2.069036	4.138072	6.207107
O	2.069036	6.207107	4.138072
Sc	0.000000	4.138072	4.138072
Zr	2.069036	6.207107	6.207107
O	4.138072	2.069036	2.069036
O	6.207107	0.000000	2.069036
O	6.207107	2.069036	0.000000
Sc	4.138072	0.000000	0.000000
Zr	6.207107	2.069036	2.069036
O	4.138072	2.069036	6.207107
O	6.207107	0.000000	6.207107
O	6.207107	2.069036	4.138072
Sc	4.138072	0.000000	4.138072
Zr	6.207107	2.069036	6.207107
O	4.138072	6.207107	2.069036
O	6.207107	4.138072	2.069036
O	6.207107	6.207107	0.000000
Sc	4.138072	4.138072	0.000000
Zr	6.207107	6.207107	2.069036
O	4.138072	6.207107	6.207107
O	6.207107	4.138072	6.207107
O	6.207107	6.207107	4.138072
Sc	4.138072	4.138072	4.138072
Zr	6.207107	6.207107	6.207107
