40

O	1.845759	1.845759	0.000000
O	1.845759	0.000000	1.845759
O	0.000000	1.845759	1.845759
Si	1.845759	1.845759	1.845759
Sr	0.000000	0.000000	0.000000
O	1.845759	1.845759	3.691511
O	1.845759	0.000000	5.537270
O	0.000000	1.845759	5.537270
Si	1.845759	1.845759	5.537270
Sr	0.000000	0.000000	3.691511
O	1.845759	5.537270	0.000000
O	1.845759	3.691511	1.845759
O	0.000000	5.537270	1.845759
Si	1.845759	5.537270	1.845759
Sr	0.000000	3.691511	0.000000
O	1.845759	5.537270	3.691511
O	1.845759	3.691511	5.537270
O	0.000000	5.537270	5.537270
Si	1.845759	5.537270	5.537270
Sr	0.000000	3.691511	3.691511
O	5.537270	1.845759	0.000000
O	5.537270	0.000000	1.845759
O	3.691511	1.845759	1.845759
Si	5.537270	1.845759	1.845759
Sr	3.691511	0.000000	0.000000
O	5.537270	1.845759	3.691511
O	5.537270	0.000000	5.537270
O	3.691511	1.845759	5.537270
Si	5.537270	1.845759	5.537270
Sr	3.691511	0.000000	3.691511
O	5.537270	5.537270	0.000000
O	5.537270	3.691511	1.845759
O	3.691511	5.537270	1.845759
Si	5.537270	5.537270	1.845759
Sr	3.691511	3.691511	0.000000
O	5.537270	5.537270	3.691511
O	5.537270	3.691511	5.537270
O	3.691511	5.537270	5.537270
Si	5.537270	5.537270	5.537270
Sr	3.691511	3.691511	3.691511
