40

O	1.834070	1.834070	0.000000
O	0.000000	1.834070	1.834070
O	1.834070	0.000000	1.834070
Si	1.834070	1.834070	1.834070
Sr_sv	0.000000	0.000000	0.000000
O	1.834070	1.834070	3.668136
O	0.000000	1.834070	5.502206
O	1.834070	0.000000	5.502206
Si	1.834070	1.834070	5.502206
Sr_sv	0.000000	0.000000	3.668136
O	1.834070	5.502206	0.000000
O	0.000000	5.502206	1.834070
O	1.834070	3.668136	1.834070
Si	1.834070	5.502206	1.834070
Sr_sv	0.000000	3.668136	0.000000
O	1.834070	5.502206	3.668136
O	0.000000	5.502206	5.502206
O	1.834070	3.668136	5.502206
Si	1.834070	5.502206	5.502206
Sr_sv	0.000000	3.668136	3.668136
O	5.502206	1.834070	0.000000
O	3.668136	1.834070	1.834070
O	5.502206	0.000000	1.834070
Si	5.502206	1.834070	1.834070
Sr_sv	3.668136	0.000000	0.000000
O	5.502206	1.834070	3.668136
O	3.668136	1.834070	5.502206
O	5.502206	0.000000	5.502206
Si	5.502206	1.834070	5.502206
Sr_sv	3.668136	0.000000	3.668136
O	5.502206	5.502206	0.000000
O	3.668136	5.502206	1.834070
O	5.502206	3.668136	1.834070
Si	5.502206	5.502206	1.834070
Sr_sv	3.668136	3.668136	0.000000
O	5.502206	5.502206	3.668136
O	3.668136	5.502206	5.502206
O	5.502206	3.668136	5.502206
Si	5.502206	5.502206	5.502206
Sr_sv	3.668136	3.668136	3.668136
