40

Na	0.000000	0.000000	0.000000
O	0.000000	1.916001	1.916001
O	1.916001	0.000000	1.916001
O	1.916001	1.916001	0.000000
Se	1.916001	1.916001	1.916001
Na	0.000000	0.000000	3.832001
O	0.000000	1.916001	5.748002
O	1.916001	0.000000	5.748002
O	1.916001	1.916001	3.832001
Se	1.916001	1.916001	5.748002
Na	0.000000	3.832001	0.000000
O	0.000000	5.748002	1.916001
O	1.916001	3.832001	1.916001
O	1.916001	5.748002	0.000000
Se	1.916001	5.748002	1.916001
Na	0.000000	3.832001	3.832001
O	0.000000	5.748002	5.748002
O	1.916001	3.832001	5.748002
O	1.916001	5.748002	3.832001
Se	1.916001	5.748002	5.748002
Na	3.832001	0.000000	0.000000
O	3.832001	1.916001	1.916001
O	5.748002	0.000000	1.916001
O	5.748002	1.916001	0.000000
Se	5.748002	1.916001	1.916001
Na	3.832001	0.000000	3.832001
O	3.832001	1.916001	5.748002
O	5.748002	0.000000	5.748002
O	5.748002	1.916001	3.832001
Se	5.748002	1.916001	5.748002
Na	3.832001	3.832001	0.000000
O	3.832001	5.748002	1.916001
O	5.748002	3.832001	1.916001
O	5.748002	5.748002	0.000000
Se	5.748002	5.748002	1.916001
Na	3.832001	3.832001	3.832001
O	3.832001	5.748002	5.748002
O	5.748002	3.832001	5.748002
O	5.748002	5.748002	3.832001
Se	5.748002	5.748002	5.748002
