112

Ga	0.000000	0.000000	0.000000
Ga	2.172655	-2.171428	-2.171429
O	1.073661	-1.072831	-3.270025
O	3.271650	-1.072831	-1.072832
O	-1.073661	1.072831	-3.270025
O	1.098994	1.098597	-1.098597
O	5.418982	1.072832	-1.072832
O	3.246326	3.244260	-1.098597
O	3.246326	1.098597	-3.244260
O	1.098994	3.244260	-3.244260
Sc	-1.086333	-1.085719	-3.257148
Sc	5.431643	-1.085719	-1.085719
Sc	3.258988	1.085719	-1.085719
Sc	1.086333	1.085719	-3.257148
Ga	4.345315	4.342857	0.000000
Ga	6.517971	2.171429	-2.171429
O	5.418976	3.270026	-3.270025
O	7.616965	3.270026	-1.072832
O	3.271654	5.415689	-3.270025
O	5.444310	5.441454	-1.098597
O	9.764297	5.415689	-1.072832
O	7.591641	7.587117	-1.098597
O	7.591641	5.441454	-3.244260
O	5.444310	7.587117	-3.244260
Sc	3.258983	3.257138	-3.257148
Sc	9.776958	3.257138	-1.085719
Sc	7.604303	5.428577	-1.085719
Sc	5.431648	5.428577	-3.257148
Ga	-4.345315	0.000000	-4.342857
Ga	-2.172660	-2.171428	-6.514286
O	-3.271654	-1.072831	-7.612883
O	-1.073666	-1.072831	-5.415689
O	-5.418976	1.072831	-7.612883
O	-3.246321	1.098597	-5.441454
O	1.073666	1.072832	-5.415689
O	-1.098989	3.244260	-5.441454
O	-1.098989	1.098597	-7.587117
O	-3.246321	3.244260	-7.587117
Sc	-5.431648	-1.085719	-7.600005
Sc	1.086328	-1.085719	-5.428577
Sc	-1.086327	1.085719	-5.428577
Sc	-3.258983	1.085719	-7.600005
Ga	0.000000	4.342857	-4.342857
Ga	2.172655	2.171429	-6.514286
O	1.073661	3.270026	-7.612883
O	3.271650	3.270026	-5.415689
O	-1.073661	5.415689	-7.612883
O	1.098994	5.441454	-5.441454
O	5.418982	5.415689	-5.415689
O	3.246326	7.587117	-5.441454
O	3.246326	5.441454	-7.587117
O	1.098994	7.587117	-7.587117
Sc	-1.086333	3.257138	-7.600005
Sc	5.431643	3.257138	-5.428577
Sc	3.258988	5.428577	-5.428577
Sc	1.086333	5.428577	-7.600005
Ga	4.345315	-4.342857	0.000000
Ga	6.517971	-6.514286	-2.171429
O	5.418976	-5.415689	-3.270025
O	7.616965	-5.415689	-1.072832
O	3.271654	-3.270026	-3.270025
O	5.444310	-3.244260	-1.098597
O	9.764297	-3.270026	-1.072832
O	7.591641	-1.098597	-1.098597
O	7.591641	-3.244260	-3.244260
O	5.444310	-1.098597	-3.244260
Sc	3.258983	-5.428577	-3.257148
Sc	9.776958	-5.428577	-1.085719
Sc	7.604303	-3.257138	-1.085719
Sc	5.431648	-3.257138	-3.257148
Ga	8.690630	0.000000	0.000000
Ga	10.863286	-2.171428	-2.171429
O	9.764291	-1.072831	-3.270025
O	11.962280	-1.072831	-1.072832
O	7.616970	1.072831	-3.270025
O	9.789625	1.098597	-1.098597
O	14.109612	1.072832	-1.072832
O	11.936957	3.244260	-1.098597
O	11.936957	1.098597	-3.244260
O	9.789625	3.244260	-3.244260
Sc	7.604298	-1.085719	-3.257148
Sc	14.122274	-1.085719	-1.085719
Sc	11.949618	1.085719	-1.085719
Sc	9.776963	1.085719	-3.257148
Ga	0.000000	-4.342857	-4.342857
Ga	2.172655	-6.514286	-6.514286
O	1.073661	-5.415689	-7.612883
O	3.271650	-5.415689	-5.415689
O	-1.073661	-3.270026	-7.612883
O	1.098994	-3.244260	-5.441454
O	5.418982	-3.270026	-5.415689
O	3.246326	-1.098597	-5.441454
O	3.246326	-3.244260	-7.587117
O	1.098994	-1.098597	-7.587117
Sc	-1.086333	-5.428577	-7.600005
Sc	5.431643	-5.428577	-5.428577
Sc	3.258988	-3.257138	-5.428577
Sc	1.086333	-3.257138	-7.600005
Ga	4.345315	0.000000	-4.342857
Ga	6.517971	-2.171428	-6.514286
O	5.418976	-1.072831	-7.612883
O	7.616965	-1.072831	-5.415689
O	3.271654	1.072831	-7.612883
O	5.444310	1.098597	-5.441454
O	9.764297	1.072832	-5.415689
O	7.591641	3.244260	-5.441454
O	7.591641	1.098597	-7.587117
O	5.444310	3.244260	-7.587117
Sc	3.258983	-1.085719	-7.600005
Sc	9.776958	-1.085719	-5.428577
Sc	7.604303	1.085719	-5.428577
Sc	5.431648	1.085719	-7.600005
