40

Cd	2.212462	2.212462	2.212462
Cl	0.000000	0.000000	0.000000
O	0.000000	2.212462	2.212462
O	2.212462	0.000000	2.212462
O	2.212462	2.212462	0.000000
Cd	2.212462	2.212462	6.637386
Cl	0.000000	0.000000	4.424924
O	0.000000	2.212462	6.637386
O	2.212462	0.000000	6.637386
O	2.212462	2.212462	4.424924
Cd	2.212462	6.637386	2.212462
Cl	0.000000	4.424924	0.000000
O	0.000000	6.637386	2.212462
O	2.212462	4.424924	2.212462
O	2.212462	6.637386	0.000000
Cd	2.212462	6.637386	6.637386
Cl	0.000000	4.424924	4.424924
O	0.000000	6.637386	6.637386
O	2.212462	4.424924	6.637386
O	2.212462	6.637386	4.424924
Cd	6.637386	2.212462	2.212462
Cl	4.424924	0.000000	0.000000
O	4.424924	2.212462	2.212462
O	6.637386	0.000000	2.212462
O	6.637386	2.212462	0.000000
Cd	6.637386	2.212462	6.637386
Cl	4.424924	0.000000	4.424924
O	4.424924	2.212462	6.637386
O	6.637386	0.000000	6.637386
O	6.637386	2.212462	4.424924
Cd	6.637386	6.637386	2.212462
Cl	4.424924	4.424924	0.000000
O	4.424924	6.637386	2.212462
O	6.637386	4.424924	2.212462
O	6.637386	6.637386	0.000000
Cd	6.637386	6.637386	6.637386
Cl	4.424924	4.424924	4.424924
O	4.424924	6.637386	6.637386
O	6.637386	4.424924	6.637386
O	6.637386	6.637386	4.424924
