40

Ge	0.000000	0.000000	0.000000
Hg	2.087461	2.087461	2.087461
O	2.087461	2.087461	0.000000
O	2.087461	0.000000	2.087461
O	0.000000	2.087461	2.087461
Ge	0.000000	0.000000	4.174922
Hg	2.087461	2.087461	6.262382
O	2.087461	2.087461	4.174922
O	2.087461	0.000000	6.262382
O	0.000000	2.087461	6.262382
Ge	0.000000	4.174922	0.000000
Hg	2.087461	6.262382	2.087461
O	2.087461	6.262382	0.000000
O	2.087461	4.174922	2.087461
O	0.000000	6.262382	2.087461
Ge	0.000000	4.174922	4.174922
Hg	2.087461	6.262382	6.262382
O	2.087461	6.262382	4.174922
O	2.087461	4.174922	6.262382
O	0.000000	6.262382	6.262382
Ge	4.174922	0.000000	0.000000
Hg	6.262382	2.087461	2.087461
O	6.262382	2.087461	0.000000
O	6.262382	0.000000	2.087461
O	4.174922	2.087461	2.087461
Ge	4.174922	0.000000	4.174922
Hg	6.262382	2.087461	6.262382
O	6.262382	2.087461	4.174922
O	6.262382	0.000000	6.262382
O	4.174922	2.087461	6.262382
Ge	4.174922	4.174922	0.000000
Hg	6.262382	6.262382	2.087461
O	6.262382	6.262382	0.000000
O	6.262382	4.174922	2.087461
O	4.174922	6.262382	2.087461
Ge	4.174922	4.174922	4.174922
Hg	6.262382	6.262382	6.262382
O	6.262382	6.262382	4.174922
O	6.262382	4.174922	6.262382
O	4.174922	6.262382	6.262382
