40

Cu	0.000000	0.000000	0.000000
F	1.887742	1.887742	1.887742
O	0.000000	1.887742	1.887742
O	1.887742	0.000000	1.887742
O	1.887742	1.887742	0.000000
Cu	0.000000	0.000000	3.775485
F	1.887742	1.887742	5.663227
O	0.000000	1.887742	5.663227
O	1.887742	0.000000	5.663227
O	1.887742	1.887742	3.775485
Cu	0.000000	3.775485	0.000000
F	1.887742	5.663227	1.887742
O	0.000000	5.663227	1.887742
O	1.887742	3.775485	1.887742
O	1.887742	5.663227	0.000000
Cu	0.000000	3.775485	3.775485
F	1.887742	5.663227	5.663227
O	0.000000	5.663227	5.663227
O	1.887742	3.775485	5.663227
O	1.887742	5.663227	3.775485
Cu	3.775485	0.000000	0.000000
F	5.663227	1.887742	1.887742
O	3.775485	1.887742	1.887742
O	5.663227	0.000000	1.887742
O	5.663227	1.887742	0.000000
Cu	3.775485	0.000000	3.775485
F	5.663227	1.887742	5.663227
O	3.775485	1.887742	5.663227
O	5.663227	0.000000	5.663227
O	5.663227	1.887742	3.775485
Cu	3.775485	3.775485	0.000000
F	5.663227	5.663227	1.887742
O	3.775485	5.663227	1.887742
O	5.663227	3.775485	1.887742
O	5.663227	5.663227	0.000000
Cu	3.775485	3.775485	3.775485
F	5.663227	5.663227	5.663227
O	3.775485	5.663227	5.663227
O	5.663227	3.775485	5.663227
O	5.663227	5.663227	3.775485
