112

In	0.000000	0.000000	0.000000
In	2.256592	-2.256834	-2.256834
O	3.500349	-1.011935	-1.011935
O	-1.012836	1.011935	-3.501733
O	1.012836	-1.011935	-3.501733
O	1.243757	1.244899	-1.244899
O	5.526020	1.011935	-1.011935
O	1.243757	3.268768	-3.268768
O	3.269428	3.268768	-1.244899
O	3.269428	1.244899	-3.268768
Pd	-1.128296	-1.128417	-3.385251
Pd	3.384888	1.128417	-1.128417
Pd	5.641481	-1.128417	-1.128417
Pd	1.128296	1.128417	-3.385251
In	4.513185	4.513668	0.000000
In	6.769777	2.256834	-2.256834
O	8.013534	3.501733	-1.011935
O	3.500349	5.525602	-3.501733
O	5.526020	3.501733	-3.501733
O	5.756941	5.758567	-1.244899
O	10.039205	5.525602	-1.011935
O	5.756941	7.782436	-3.268768
O	7.782612	7.782436	-1.244899
O	7.782612	5.758567	-3.268768
Pd	3.384888	3.385251	-3.385251
Pd	7.898073	5.642085	-1.128417
Pd	10.154665	3.385251	-1.128417
Pd	5.641481	5.642085	-3.385251
In	-4.513185	0.000000	-4.513668
In	-2.256592	-2.256834	-6.770502
O	-1.012836	-1.011935	-5.525602
O	-5.526020	1.011935	-8.015401
O	-3.500349	-1.011935	-8.015401
O	-3.269428	1.244899	-5.758567
O	1.012836	1.011935	-5.525602
O	-3.269428	3.268768	-7.782436
O	-1.243757	3.268768	-5.758567
O	-1.243757	1.244899	-7.782436
Pd	-5.641481	-1.128417	-7.898918
Pd	-1.128296	1.128417	-5.642085
Pd	1.128296	-1.128417	-5.642085
Pd	-3.384888	1.128417	-7.898918
In	0.000000	4.513668	-4.513668
In	2.256592	2.256834	-6.770502
O	3.500349	3.501733	-5.525602
O	-1.012836	5.525602	-8.015401
O	1.012836	3.501733	-8.015401
O	1.243757	5.758567	-5.758567
O	5.526020	5.525602	-5.525602
O	1.243757	7.782436	-7.782436
O	3.269428	7.782436	-5.758567
O	3.269428	5.758567	-7.782436
Pd	-1.128296	3.385251	-7.898918
Pd	3.384888	5.642085	-5.642085
Pd	5.641481	3.385251	-5.642085
Pd	1.128296	5.642085	-7.898918
In	4.513185	-4.513668	0.000000
In	6.769777	-6.770502	-2.256834
O	8.013534	-5.525602	-1.011935
O	3.500349	-3.501733	-3.501733
O	5.526020	-5.525602	-3.501733
O	5.756941	-3.268768	-1.244899
O	10.039205	-3.501733	-1.011935
O	5.756941	-1.244899	-3.268768
O	7.782612	-1.244899	-1.244899
O	7.782612	-3.268768	-3.268768
Pd	3.384888	-5.642085	-3.385251
Pd	7.898073	-3.385251	-1.128417
Pd	10.154665	-5.642085	-1.128417
Pd	5.641481	-3.385251	-3.385251
In	9.026369	0.000000	0.000000
In	11.282961	-2.256834	-2.256834
O	12.526718	-1.011935	-1.011935
O	8.013534	1.011935	-3.501733
O	10.039205	-1.011935	-3.501733
O	10.270126	1.244899	-1.244899
O	14.552389	1.011935	-1.011935
O	10.270126	3.268768	-3.268768
O	12.295797	3.268768	-1.244899
O	12.295797	1.244899	-3.268768
Pd	7.898073	-1.128417	-3.385251
Pd	12.411258	1.128417	-1.128417
Pd	14.667850	-1.128417	-1.128417
Pd	10.154665	1.128417	-3.385251
In	0.000000	-4.513668	-4.513668
In	2.256592	-6.770502	-6.770502
O	3.500349	-5.525602	-5.525602
O	-1.012836	-3.501733	-8.015401
O	1.012836	-5.525602	-8.015401
O	1.243757	-3.268768	-5.758567
O	5.526020	-3.501733	-5.525602
O	1.243757	-1.244899	-7.782436
O	3.269428	-1.244899	-5.758567
O	3.269428	-3.268768	-7.782436
Pd	-1.128296	-5.642085	-7.898918
Pd	3.384888	-3.385251	-5.642085
Pd	5.641481	-5.642085	-5.642085
Pd	1.128296	-3.385251	-7.898918
In	4.513185	0.000000	-4.513668
In	6.769777	-2.256834	-6.770502
O	8.013534	-1.011935	-5.525602
O	3.500349	1.011935	-8.015401
O	5.526020	-1.011935	-8.015401
O	5.756941	1.244899	-5.758567
O	10.039205	1.011935	-5.525602
O	5.756941	3.268768	-7.782436
O	7.782612	3.268768	-5.758567
O	7.782612	1.244899	-7.782436
Pd	3.384888	-1.128417	-7.898918
Pd	7.898073	1.128417	-5.642085
Pd	10.154665	-1.128417	-5.642085
Pd	5.641481	1.128417	-7.898918
