40

As	1.949190	1.949190	1.949190
In_d	0.000000	0.000000	0.000000
O	1.949190	1.949190	0.000000
O	0.000000	1.949190	1.949190
O	1.949190	0.000000	1.949190
As	1.949190	1.949190	5.847562
In_d	0.000000	0.000000	3.898372
O	1.949190	1.949190	3.898372
O	0.000000	1.949190	5.847562
O	1.949190	0.000000	5.847562
As	1.949190	5.847562	1.949190
In_d	0.000000	3.898372	0.000000
O	1.949190	5.847562	0.000000
O	0.000000	5.847562	1.949190
O	1.949190	3.898372	1.949190
As	1.949190	5.847562	5.847562
In_d	0.000000	3.898372	3.898372
O	1.949190	5.847562	3.898372
O	0.000000	5.847562	5.847562
O	1.949190	3.898372	5.847562
As	5.847562	1.949190	1.949190
In_d	3.898372	0.000000	0.000000
O	5.847562	1.949190	0.000000
O	3.898372	1.949190	1.949190
O	5.847562	0.000000	1.949190
As	5.847562	1.949190	5.847562
In_d	3.898372	0.000000	3.898372
O	5.847562	1.949190	3.898372
O	3.898372	1.949190	5.847562
O	5.847562	0.000000	5.847562
As	5.847562	5.847562	1.949190
In_d	3.898372	3.898372	0.000000
O	5.847562	5.847562	0.000000
O	3.898372	5.847562	1.949190
O	5.847562	3.898372	1.949190
As	5.847562	5.847562	5.847562
In_d	3.898372	3.898372	3.898372
O	5.847562	5.847562	3.898372
O	3.898372	5.847562	5.847562
O	5.847562	3.898372	5.847562
