112

Ba	0.000000	0.000000	0.000000
Ba	2.656326	-2.657150	-2.657150
O	4.128083	-1.184232	-1.184232
O	-1.184569	1.184232	-4.130069
O	1.184569	-1.184232	-4.130069
O	1.471757	1.472919	-1.472919
O	6.497221	1.184232	-1.184232
O	1.471757	3.841382	-3.841382
O	3.840895	3.841382	-1.472919
O	3.840895	1.472919	-3.841382
Sr	-1.328163	-1.328575	-3.985725
Sr	3.984489	1.328575	-1.328575
Sr	6.640815	-1.328575	-1.328575
Sr	1.328163	1.328575	-3.985725
Ba	5.312652	5.314301	0.000000
Ba	7.968978	2.657150	-2.657150
O	9.440735	4.130069	-1.184232
O	4.128083	6.498532	-4.130069
O	6.497221	4.130069	-4.130069
O	6.784409	6.787219	-1.472919
O	11.809873	6.498532	-1.184232
O	6.784409	9.155682	-3.841382
O	9.153547	9.155682	-1.472919
O	9.153547	6.787219	-3.841382
Sr	3.984489	3.985725	-3.985725
Sr	9.297141	6.642876	-1.328575
Sr	11.953467	3.985725	-1.328575
Sr	6.640815	6.642876	-3.985725
Ba	-5.312652	0.000000	-5.314301
Ba	-2.656326	-2.657150	-7.971451
O	-1.184569	-1.184232	-6.498532
O	-6.497221	1.184232	-9.444370
O	-4.128083	-1.184232	-9.444370
O	-3.840895	1.472919	-6.787219
O	1.184569	1.184232	-6.498532
O	-3.840895	3.841382	-9.155683
O	-1.471757	3.841382	-6.787219
O	-1.471757	1.472919	-9.155683
Sr	-6.640815	-1.328575	-9.300026
Sr	-1.328163	1.328575	-6.642876
Sr	1.328163	-1.328575	-6.642876
Sr	-3.984489	1.328575	-9.300026
Ba	0.000000	5.314301	-5.314301
Ba	2.656326	2.657150	-7.971451
O	4.128083	4.130069	-6.498532
O	-1.184569	6.498532	-9.444370
O	1.184569	4.130069	-9.444370
O	1.471757	6.787219	-6.787219
O	6.497221	6.498532	-6.498532
O	1.471757	9.155682	-9.155683
O	3.840895	9.155682	-6.787219
O	3.840895	6.787219	-9.155683
Sr	-1.328163	3.985725	-9.300026
Sr	3.984489	6.642876	-6.642876
Sr	6.640815	3.985725	-6.642876
Sr	1.328163	6.642876	-9.300026
Ba	5.312652	-5.314301	0.000000
Ba	7.968978	-7.971451	-2.657150
O	9.440735	-6.498532	-1.184232
O	4.128083	-4.130069	-4.130069
O	6.497221	-6.498532	-4.130069
O	6.784409	-3.841382	-1.472919
O	11.809873	-4.130069	-1.184232
O	6.784409	-1.472919	-3.841382
O	9.153547	-1.472919	-1.472919
O	9.153547	-3.841382	-3.841382
Sr	3.984489	-6.642876	-3.985725
Sr	9.297141	-3.985725	-1.328575
Sr	11.953467	-6.642876	-1.328575
Sr	6.640815	-3.985725	-3.985725
Ba	10.625304	0.000000	0.000000
Ba	13.281630	-2.657150	-2.657150
O	14.753387	-1.184232	-1.184232
O	9.440735	1.184232	-4.130069
O	11.809873	-1.184232	-4.130069
O	12.097061	1.472919	-1.472919
O	17.122525	1.184232	-1.184232
O	12.097061	3.841382	-3.841382
O	14.466199	3.841382	-1.472919
O	14.466199	1.472919	-3.841382
Sr	9.297141	-1.328575	-3.985725
Sr	14.609793	1.328575	-1.328575
Sr	17.266119	-1.328575	-1.328575
Sr	11.953467	1.328575	-3.985725
Ba	0.000000	-5.314301	-5.314301
Ba	2.656326	-7.971451	-7.971451
O	4.128083	-6.498532	-6.498532
O	-1.184569	-4.130069	-9.444370
O	1.184569	-6.498532	-9.444370
O	1.471757	-3.841382	-6.787219
O	6.497221	-4.130069	-6.498532
O	1.471757	-1.472919	-9.155683
O	3.840895	-1.472919	-6.787219
O	3.840895	-3.841382	-9.155683
Sr	-1.328163	-6.642876	-9.300026
Sr	3.984489	-3.985725	-6.642876
Sr	6.640815	-6.642876	-6.642876
Sr	1.328163	-3.985725	-9.300026
Ba	5.312652	0.000000	-5.314301
Ba	7.968978	-2.657150	-7.971451
O	9.440735	-1.184232	-6.498532
O	4.128083	1.184232	-9.444370
O	6.497221	-1.184232	-9.444370
O	6.784409	1.472919	-6.787219
O	11.809873	1.184232	-6.498532
O	6.784409	3.841382	-9.155683
O	9.153547	3.841382	-6.787219
O	9.153547	1.472919	-9.155683
Sr	3.984489	-1.328575	-9.300026
Sr	9.297141	1.328575	-6.642876
Sr	11.953467	-1.328575	-6.642876
Sr	6.640815	1.328575	-9.300026
