40

Bi	2.119110	2.119110	2.119110
Cr	0.000000	0.000000	0.000000
O	2.119110	2.119110	0.000000
O	2.119110	0.000000	2.119110
O	0.000000	2.119110	2.119110
Bi	2.119110	2.119110	6.357324
Cr	0.000000	0.000000	4.238214
O	2.119110	2.119110	4.238214
O	2.119110	0.000000	6.357324
O	0.000000	2.119110	6.357324
Bi	2.119110	6.357324	2.119110
Cr	0.000000	4.238214	0.000000
O	2.119110	6.357324	0.000000
O	2.119110	4.238214	2.119110
O	0.000000	6.357324	2.119110
Bi	2.119110	6.357324	6.357324
Cr	0.000000	4.238214	4.238214
O	2.119110	6.357324	4.238214
O	2.119110	4.238214	6.357324
O	0.000000	6.357324	6.357324
Bi	6.357324	2.119110	2.119110
Cr	4.238214	0.000000	0.000000
O	6.357324	2.119110	0.000000
O	6.357324	0.000000	2.119110
O	4.238214	2.119110	2.119110
Bi	6.357324	2.119110	6.357324
Cr	4.238214	0.000000	4.238214
O	6.357324	2.119110	4.238214
O	6.357324	0.000000	6.357324
O	4.238214	2.119110	6.357324
Bi	6.357324	6.357324	2.119110
Cr	4.238214	4.238214	0.000000
O	6.357324	6.357324	0.000000
O	6.357324	4.238214	2.119110
O	4.238214	6.357324	2.119110
Bi	6.357324	6.357324	6.357324
Cr	4.238214	4.238214	4.238214
O	6.357324	6.357324	4.238214
O	6.357324	4.238214	6.357324
O	4.238214	6.357324	6.357324
