40

O	2.193759	2.193759	0.000000
O	2.193759	0.000000	2.193759
O	0.000000	2.193759	2.193759
Pt	0.000000	0.000000	0.000000
Rb	2.193759	2.193759	2.193759
O	2.193759	2.193759	4.387521
O	2.193759	0.000000	6.581280
O	0.000000	2.193759	6.581280
Pt	0.000000	0.000000	4.387521
Rb	2.193759	2.193759	6.581280
O	2.193759	6.581280	0.000000
O	2.193759	4.387521	2.193759
O	0.000000	6.581280	2.193759
Pt	0.000000	4.387521	0.000000
Rb	2.193759	6.581280	2.193759
O	2.193759	6.581280	4.387521
O	2.193759	4.387521	6.581280
O	0.000000	6.581280	6.581280
Pt	0.000000	4.387521	4.387521
Rb	2.193759	6.581280	6.581280
O	6.581280	2.193759	0.000000
O	6.581280	0.000000	2.193759
O	4.387521	2.193759	2.193759
Pt	4.387521	0.000000	0.000000
Rb	6.581280	2.193759	2.193759
O	6.581280	2.193759	4.387521
O	6.581280	0.000000	6.581280
O	4.387521	2.193759	6.581280
Pt	4.387521	0.000000	4.387521
Rb	6.581280	2.193759	6.581280
O	6.581280	6.581280	0.000000
O	6.581280	4.387521	2.193759
O	4.387521	6.581280	2.193759
Pt	4.387521	4.387521	0.000000
Rb	6.581280	6.581280	2.193759
O	6.581280	6.581280	4.387521
O	6.581280	4.387521	6.581280
O	4.387521	6.581280	6.581280
Pt	4.387521	4.387521	4.387521
Rb	6.581280	6.581280	6.581280
