40

O	0.000000	2.391904	2.391904
O	2.391904	0.000000	2.391904
O	2.391904	2.391904	0.000000
Pt	0.000000	0.000000	0.000000
Rb	2.391904	2.391904	2.391904
O	0.000000	2.391904	7.175712
O	2.391904	0.000000	7.175712
O	2.391904	2.391904	4.783808
Pt	0.000000	0.000000	4.783808
Rb	2.391904	2.391904	7.175712
O	0.000000	7.175712	2.391904
O	2.391904	4.783808	2.391904
O	2.391904	7.175712	0.000000
Pt	0.000000	4.783808	0.000000
Rb	2.391904	7.175712	2.391904
O	0.000000	7.175712	7.175712
O	2.391904	4.783808	7.175712
O	2.391904	7.175712	4.783808
Pt	0.000000	4.783808	4.783808
Rb	2.391904	7.175712	7.175712
O	4.783808	2.391904	2.391904
O	7.175712	0.000000	2.391904
O	7.175712	2.391904	0.000000
Pt	4.783808	0.000000	0.000000
Rb	7.175712	2.391904	2.391904
O	4.783808	2.391904	7.175712
O	7.175712	0.000000	7.175712
O	7.175712	2.391904	4.783808
Pt	4.783808	0.000000	4.783808
Rb	7.175712	2.391904	7.175712
O	4.783808	7.175712	2.391904
O	7.175712	4.783808	2.391904
O	7.175712	7.175712	0.000000
Pt	4.783808	4.783808	0.000000
Rb	7.175712	7.175712	2.391904
O	4.783808	7.175712	7.175712
O	7.175712	4.783808	7.175712
O	7.175712	7.175712	4.783808
Pt	4.783808	4.783808	4.783808
Rb	7.175712	7.175712	7.175712
