40

Cr	0.000000	0.000000	0.000000
Er	2.121970	2.121970	2.121970
O	2.121970	0.000000	2.121970
O	0.000000	2.121970	2.121970
O	2.121970	2.121970	0.000000
Cr	0.000000	0.000000	4.243929
Er	2.121970	2.121970	6.365899
O	2.121970	0.000000	6.365899
O	0.000000	2.121970	6.365899
O	2.121970	2.121970	4.243929
Cr	0.000000	4.243929	0.000000
Er	2.121970	6.365899	2.121970
O	2.121970	4.243929	2.121970
O	0.000000	6.365899	2.121970
O	2.121970	6.365899	0.000000
Cr	0.000000	4.243929	4.243929
Er	2.121970	6.365899	6.365899
O	2.121970	4.243929	6.365899
O	0.000000	6.365899	6.365899
O	2.121970	6.365899	4.243929
Cr	4.243929	0.000000	0.000000
Er	6.365899	2.121970	2.121970
O	6.365899	0.000000	2.121970
O	4.243929	2.121970	2.121970
O	6.365899	2.121970	0.000000
Cr	4.243929	0.000000	4.243929
Er	6.365899	2.121970	6.365899
O	6.365899	0.000000	6.365899
O	4.243929	2.121970	6.365899
O	6.365899	2.121970	4.243929
Cr	4.243929	4.243929	0.000000
Er	6.365899	6.365899	2.121970
O	6.365899	4.243929	2.121970
O	4.243929	6.365899	2.121970
O	6.365899	6.365899	0.000000
Cr	4.243929	4.243929	4.243929
Er	6.365899	6.365899	6.365899
O	6.365899	4.243929	6.365899
O	4.243929	6.365899	6.365899
O	6.365899	6.365899	4.243929
