40

Cd	0.000000	0.000000	0.000000
Hf	2.049775	2.049775	2.049775
O	0.000000	2.049775	2.049775
O	2.049775	0.000000	2.049775
O	2.049775	2.049775	0.000000
Cd	0.000000	0.000000	4.099550
Hf	2.049775	2.049775	6.149326
O	0.000000	2.049775	6.149326
O	2.049775	0.000000	6.149326
O	2.049775	2.049775	4.099550
Cd	0.000000	4.099550	0.000000
Hf	2.049775	6.149326	2.049775
O	0.000000	6.149326	2.049775
O	2.049775	4.099550	2.049775
O	2.049775	6.149326	0.000000
Cd	0.000000	4.099550	4.099550
Hf	2.049775	6.149326	6.149326
O	0.000000	6.149326	6.149326
O	2.049775	4.099550	6.149326
O	2.049775	6.149326	4.099550
Cd	4.099550	0.000000	0.000000
Hf	6.149326	2.049775	2.049775
O	4.099550	2.049775	2.049775
O	6.149326	0.000000	2.049775
O	6.149326	2.049775	0.000000
Cd	4.099550	0.000000	4.099550
Hf	6.149326	2.049775	6.149326
O	4.099550	2.049775	6.149326
O	6.149326	0.000000	6.149326
O	6.149326	2.049775	4.099550
Cd	4.099550	4.099550	0.000000
Hf	6.149326	6.149326	2.049775
O	4.099550	6.149326	2.049775
O	6.149326	4.099550	2.049775
O	6.149326	6.149326	0.000000
Cd	4.099550	4.099550	4.099550
Hf	6.149326	6.149326	6.149326
O	4.099550	6.149326	6.149326
O	6.149326	4.099550	6.149326
O	6.149326	6.149326	4.099550
