40

O	2.145770	2.145770	0.000000
O	0.000000	2.145770	2.145770
O	2.145770	0.000000	2.145770
Sb	0.000000	0.000000	0.000000
Y_sv	2.145770	2.145770	2.145770
O	2.145770	2.145770	4.291541
O	0.000000	2.145770	6.437311
O	2.145770	0.000000	6.437311
Sb	0.000000	0.000000	4.291541
Y_sv	2.145770	2.145770	6.437311
O	2.145770	6.437311	0.000000
O	0.000000	6.437311	2.145770
O	2.145770	4.291541	2.145770
Sb	0.000000	4.291541	0.000000
Y_sv	2.145770	6.437311	2.145770
O	2.145770	6.437311	4.291541
O	0.000000	6.437311	6.437311
O	2.145770	4.291541	6.437311
Sb	0.000000	4.291541	4.291541
Y_sv	2.145770	6.437311	6.437311
O	6.437311	2.145770	0.000000
O	4.291541	2.145770	2.145770
O	6.437311	0.000000	2.145770
Sb	4.291541	0.000000	0.000000
Y_sv	6.437311	2.145770	2.145770
O	6.437311	2.145770	4.291541
O	4.291541	2.145770	6.437311
O	6.437311	0.000000	6.437311
Sb	4.291541	0.000000	4.291541
Y_sv	6.437311	2.145770	6.437311
O	6.437311	6.437311	0.000000
O	4.291541	6.437311	2.145770
O	6.437311	4.291541	2.145770
Sb	4.291541	4.291541	0.000000
Y_sv	6.437311	6.437311	2.145770
O	6.437311	6.437311	4.291541
O	4.291541	6.437311	6.437311
O	6.437311	4.291541	6.437311
Sb	4.291541	4.291541	4.291541
Y_sv	6.437311	6.437311	6.437311
