40

O	1.996500	1.996500	0.000000
O	0.000000	1.996500	1.996500
O	1.996500	0.000000	1.996500
Os_pv	1.996500	1.996500	1.996500
Pa	0.000000	0.000000	0.000000
O	1.996500	1.996500	3.992997
O	0.000000	1.996500	5.989497
O	1.996500	0.000000	5.989497
Os_pv	1.996500	1.996500	5.989497
Pa	0.000000	0.000000	3.992997
O	1.996500	5.989497	0.000000
O	0.000000	5.989497	1.996500
O	1.996500	3.992997	1.996500
Os_pv	1.996500	5.989497	1.996500
Pa	0.000000	3.992997	0.000000
O	1.996500	5.989497	3.992997
O	0.000000	5.989497	5.989497
O	1.996500	3.992997	5.989497
Os_pv	1.996500	5.989497	5.989497
Pa	0.000000	3.992997	3.992997
O	5.989497	1.996500	0.000000
O	3.992997	1.996500	1.996500
O	5.989497	0.000000	1.996500
Os_pv	5.989497	1.996500	1.996500
Pa	3.992997	0.000000	0.000000
O	5.989497	1.996500	3.992997
O	3.992997	1.996500	5.989497
O	5.989497	0.000000	5.989497
Os_pv	5.989497	1.996500	5.989497
Pa	3.992997	0.000000	3.992997
O	5.989497	5.989497	0.000000
O	3.992997	5.989497	1.996500
O	5.989497	3.992997	1.996500
Os_pv	5.989497	5.989497	1.996500
Pa	3.992997	3.992997	0.000000
O	5.989497	5.989497	3.992997
O	3.992997	5.989497	5.989497
O	5.989497	3.992997	5.989497
Os_pv	5.989497	5.989497	5.989497
Pa	3.992997	3.992997	3.992997
