112

Li	0.000000	0.000000	0.000000
Li	2.295819	-2.296173	-2.296173
Lu	-1.147905	-1.148091	-3.444264
Lu	5.739532	-1.148091	-1.148091
Lu	1.147905	1.148091	-3.444264
Lu	3.443723	1.148091	-1.148091
O	3.546914	-1.044646	-1.044646
O	-1.044714	1.044646	-3.547709
O	1.044714	-1.044646	-3.547709
O	1.251095	1.251526	-1.251526
O	5.636351	1.044646	-1.044646
O	1.251095	3.340829	-3.340829
O	3.340532	3.340829	-1.251526
O	3.340532	1.251526	-3.340829
Li	4.591629	4.592355	0.000000
Li	6.887448	2.296182	-2.296173
Lu	3.443725	3.444264	-3.444264
Lu	10.331162	3.444264	-1.148091
Lu	5.739534	5.740446	-3.444264
Lu	8.035353	5.740446	-1.148091
O	8.138544	3.547708	-1.044646
O	3.546916	5.637001	-3.547709
O	5.636343	3.547708	-3.547709
O	5.842725	5.843881	-1.251526
O	10.227981	5.637001	-1.044646
O	5.842725	7.933184	-3.340829
O	7.932162	7.933184	-1.251526
O	7.932162	5.843881	-3.340829
Li	-4.591629	0.000000	-4.592355
Li	-2.295810	-2.296173	-6.888527
Lu	-5.739534	-1.148091	-8.036619
Lu	1.147903	-1.148091	-5.740446
Lu	-3.443725	1.148091	-8.036619
Lu	-1.147906	1.148091	-5.740446
O	-1.044715	-1.044646	-5.637001
O	-5.636343	1.044646	-8.140063
O	-3.546916	-1.044646	-8.140063
O	-3.340534	1.251526	-5.843881
O	1.044722	1.044646	-5.637001
O	-3.340534	3.340829	-7.933184
O	-1.251097	3.340829	-5.843881
O	-1.251097	1.251526	-7.933184
Li	0.000000	4.592355	-4.592355
Li	2.295819	2.296182	-6.888527
Lu	-1.147905	3.444264	-8.036619
Lu	5.739532	3.444264	-5.740446
Lu	1.147905	5.740446	-8.036619
Lu	3.443723	5.740446	-5.740446
O	3.546914	3.547708	-5.637001
O	-1.044714	5.637001	-8.140063
O	1.044714	3.547708	-8.140063
O	1.251095	5.843881	-5.843881
O	5.636351	5.637001	-5.637001
O	1.251095	7.933184	-7.933184
O	3.340532	7.933184	-5.843881
O	3.340532	5.843881	-7.933184
Li	4.591629	-4.592355	0.000000
Li	6.887448	-6.888527	-2.296173
Lu	3.443725	-5.740446	-3.444264
Lu	10.331162	-5.740446	-1.148091
Lu	5.739534	-3.444264	-3.444264
Lu	8.035353	-3.444264	-1.148091
O	8.138544	-5.637001	-1.044646
O	3.546916	-3.547708	-3.547709
O	5.636343	-5.637001	-3.547709
O	5.842725	-3.340829	-1.251526
O	10.227981	-3.547708	-1.044646
O	5.842725	-1.251526	-3.340829
O	7.932162	-1.251526	-1.251526
O	7.932162	-3.340829	-3.340829
Li	9.183258	0.000000	0.000000
Li	11.479077	-2.296173	-2.296173
Lu	8.035354	-1.148091	-3.444264
Lu	14.922791	-1.148091	-1.148091
Lu	10.331163	1.148091	-3.444264
Lu	12.626982	1.148091	-1.148091
O	12.730173	-1.044646	-1.044646
O	8.138545	1.044646	-3.547709
O	10.227972	-1.044646	-3.547709
O	10.434354	1.251526	-1.251526
O	14.819610	1.044646	-1.044646
O	10.434354	3.340829	-3.340829
O	12.523791	3.340829	-1.251526
O	12.523791	1.251526	-3.340829
Li	0.000000	-4.592355	-4.592355
Li	2.295819	-6.888527	-6.888527
Lu	-1.147905	-5.740446	-8.036619
Lu	5.739532	-5.740446	-5.740446
Lu	1.147905	-3.444264	-8.036619
Lu	3.443723	-3.444264	-5.740446
O	3.546914	-5.637001	-5.637001
O	-1.044714	-3.547708	-8.140063
O	1.044714	-5.637001	-8.140063
O	1.251095	-3.340829	-5.843881
O	5.636351	-3.547708	-5.637001
O	1.251095	-1.251526	-7.933184
O	3.340532	-1.251526	-5.843881
O	3.340532	-3.340829	-7.933184
Li	4.591629	0.000000	-4.592355
Li	6.887448	-2.296173	-6.888527
Lu	3.443725	-1.148091	-8.036619
Lu	10.331162	-1.148091	-5.740446
Lu	5.739534	1.148091	-8.036619
Lu	8.035353	1.148091	-5.740446
O	8.138544	-1.044646	-5.637001
O	3.546916	1.044646	-8.140063
O	5.636343	-1.044646	-8.140063
O	5.842725	1.251526	-5.843881
O	10.227981	1.044646	-5.637001
O	5.842725	3.340829	-7.933184
O	7.932162	3.340829	-5.843881
O	7.932162	1.251526	-7.933184
