40

Co	0.000000	0.000000	0.000000
O	0.000000	2.095113	2.095113
O	2.095113	0.000000	2.095113
O	2.095113	2.095113	0.000000
Tl	2.095113	2.095113	2.095113
Co	0.000000	0.000000	4.190225
O	0.000000	2.095113	6.285338
O	2.095113	0.000000	6.285338
O	2.095113	2.095113	4.190225
Tl	2.095113	2.095113	6.285338
Co	0.000000	4.190225	0.000000
O	0.000000	6.285338	2.095113
O	2.095113	4.190225	2.095113
O	2.095113	6.285338	0.000000
Tl	2.095113	6.285338	2.095113
Co	0.000000	4.190225	4.190225
O	0.000000	6.285338	6.285338
O	2.095113	4.190225	6.285338
O	2.095113	6.285338	4.190225
Tl	2.095113	6.285338	6.285338
Co	4.190225	0.000000	0.000000
O	4.190225	2.095113	2.095113
O	6.285338	0.000000	2.095113
O	6.285338	2.095113	0.000000
Tl	6.285338	2.095113	2.095113
Co	4.190225	0.000000	4.190225
O	4.190225	2.095113	6.285338
O	6.285338	0.000000	6.285338
O	6.285338	2.095113	4.190225
Tl	6.285338	2.095113	6.285338
Co	4.190225	4.190225	0.000000
O	4.190225	6.285338	2.095113
O	6.285338	4.190225	2.095113
O	6.285338	6.285338	0.000000
Tl	6.285338	6.285338	2.095113
Co	4.190225	4.190225	4.190225
O	4.190225	6.285338	6.285338
O	6.285338	4.190225	6.285338
O	6.285338	6.285338	4.190225
Tl	6.285338	6.285338	6.285338
