112

Ho	0.000000	0.000000	0.000000
Ho	2.693017	-2.692621	-2.692621
O	1.226604	1.227312	-1.227312
O	3.919611	-1.465309	-1.465309
O	-1.466413	1.465309	-3.919942
O	1.466413	-1.465309	-3.919942
O	1.226604	4.157939	-4.157939
O	4.159420	4.157939	-1.227312
O	4.159420	1.227312	-4.157939
O	6.852437	1.465309	-1.465309
Rb	-1.346504	-1.346310	-4.038941
Rb	6.732527	-1.346310	-1.346310
Rb	4.039520	1.346310	-1.346310
Rb	1.346504	1.346310	-4.038941
Ho	5.386025	5.385250	0.000000
Ho	8.079042	2.692630	-2.692621
O	6.612629	6.612562	-1.227312
O	9.305636	3.919942	-1.465309
O	3.919612	6.850559	-3.919942
O	6.852438	3.919942	-3.919942
O	6.612629	9.543189	-4.157939
O	9.545445	9.543189	-1.227312
O	9.545445	6.612562	-4.157939
O	12.238462	6.850559	-1.465309
Rb	4.039521	4.038940	-4.038941
Rb	12.118552	4.038940	-1.346310
Rb	9.425545	6.731561	-1.346310
Rb	6.732529	6.731561	-4.038941
Ho	-5.386025	0.000000	-5.385250
Ho	-2.693008	-2.692621	-8.077871
O	-4.159421	1.227312	-6.612562
O	-1.466414	-1.465309	-6.850559
O	-6.852438	1.465309	-9.305192
O	-3.919612	-1.465309	-9.305192
O	-4.159421	4.157939	-9.543189
O	-1.226605	4.157939	-6.612562
O	-1.226605	1.227312	-9.543189
O	1.466412	1.465309	-6.850559
Rb	-6.732529	-1.346310	-9.424191
Rb	1.346503	-1.346310	-6.731561
Rb	-1.346505	1.346310	-6.731561
Rb	-4.039521	1.346310	-9.424191
Ho	0.000000	5.385250	-5.385250
Ho	2.693017	2.692630	-8.077871
O	1.226604	6.612562	-6.612562
O	3.919611	3.919942	-6.850559
O	-1.466413	6.850559	-9.305192
O	1.466413	3.919942	-9.305192
O	1.226604	9.543189	-9.543189
O	4.159420	9.543189	-6.612562
O	4.159420	6.612562	-9.543189
O	6.852437	6.850559	-6.850559
Rb	-1.346504	4.038940	-9.424191
Rb	6.732527	4.038940	-6.731561
Rb	4.039520	6.731561	-6.731561
Rb	1.346504	6.731561	-9.424191
Ho	5.386025	-5.385250	0.000000
Ho	8.079042	-8.077871	-2.692621
O	6.612629	-4.157938	-1.227312
O	9.305636	-6.850559	-1.465309
O	3.919612	-3.919942	-3.919942
O	6.852438	-6.850559	-3.919942
O	6.612629	-1.227311	-4.157939
O	9.545445	-1.227311	-1.227312
O	9.545445	-4.157939	-4.157939
O	12.238462	-3.919942	-1.465309
Rb	4.039521	-6.731561	-4.038941
Rb	12.118552	-6.731561	-1.346310
Rb	9.425545	-4.038940	-1.346310
Rb	6.732529	-4.038940	-4.038941
Ho	10.772050	0.000000	0.000000
Ho	13.465067	-2.692621	-2.692621
O	11.998654	1.227312	-1.227312
O	14.691661	-1.465309	-1.465309
O	9.305637	1.465309	-3.919942
O	12.238463	-1.465309	-3.919942
O	11.998654	4.157939	-4.157939
O	14.931470	4.157939	-1.227312
O	14.931470	1.227312	-4.157939
O	17.624487	1.465309	-1.465309
Rb	9.425546	-1.346310	-4.038941
Rb	17.504577	-1.346310	-1.346310
Rb	14.811570	1.346310	-1.346310
Rb	12.118553	1.346310	-4.038941
Ho	0.000000	-5.385250	-5.385250
Ho	2.693017	-8.077871	-8.077871
O	1.226604	-4.157938	-6.612562
O	3.919611	-6.850559	-6.850559
O	-1.466413	-3.919942	-9.305192
O	1.466413	-6.850559	-9.305192
O	1.226604	-1.227311	-9.543189
O	4.159420	-1.227311	-6.612562
O	4.159420	-4.157939	-9.543189
O	6.852437	-3.919942	-6.850559
Rb	-1.346504	-6.731561	-9.424191
Rb	6.732527	-6.731561	-6.731561
Rb	4.039520	-4.038940	-6.731561
Rb	1.346504	-4.038940	-9.424191
Ho	5.386025	0.000000	-5.385250
Ho	8.079042	-2.692621	-8.077871
O	6.612629	1.227312	-6.612562
O	9.305636	-1.465309	-6.850559
O	3.919612	1.465309	-9.305192
O	6.852438	-1.465309	-9.305192
O	6.612629	4.157939	-9.543189
O	9.545445	4.157939	-6.612562
O	9.545445	1.227312	-9.543189
O	12.238462	1.465309	-6.850559
Rb	4.039521	-1.346310	-9.424191
Rb	12.118552	-1.346310	-6.731561
Rb	9.425545	1.346310	-6.731561
Rb	6.732529	1.346310	-9.424191
