40

O	2.339256	2.339256	0.000000
O	2.339256	0.000000	2.339256
O	0.000000	2.339256	2.339256
Rb	0.000000	0.000000	0.000000
Sr	2.339256	2.339256	2.339256
O	2.339256	2.339256	4.678511
O	2.339256	0.000000	7.017767
O	0.000000	2.339256	7.017767
Rb	0.000000	0.000000	4.678511
Sr	2.339256	2.339256	7.017767
O	2.339256	7.017767	0.000000
O	2.339256	4.678511	2.339256
O	0.000000	7.017767	2.339256
Rb	0.000000	4.678511	0.000000
Sr	2.339256	7.017767	2.339256
O	2.339256	7.017767	4.678511
O	2.339256	4.678511	7.017767
O	0.000000	7.017767	7.017767
Rb	0.000000	4.678511	4.678511
Sr	2.339256	7.017767	7.017767
O	7.017767	2.339256	0.000000
O	7.017767	0.000000	2.339256
O	4.678511	2.339256	2.339256
Rb	4.678511	0.000000	0.000000
Sr	7.017767	2.339256	2.339256
O	7.017767	2.339256	4.678511
O	7.017767	0.000000	7.017767
O	4.678511	2.339256	7.017767
Rb	4.678511	0.000000	4.678511
Sr	7.017767	2.339256	7.017767
O	7.017767	7.017767	0.000000
O	7.017767	4.678511	2.339256
O	4.678511	7.017767	2.339256
Rb	4.678511	4.678511	0.000000
Sr	7.017767	7.017767	2.339256
O	7.017767	7.017767	4.678511
O	7.017767	4.678511	7.017767
O	4.678511	7.017767	7.017767
Rb	4.678511	4.678511	4.678511
Sr	7.017767	7.017767	7.017767
