40

Cd	2.096669	2.096669	2.096669
O	0.000000	2.096669	2.096669
O	2.096669	0.000000	2.096669
O	2.096669	2.096669	0.000000
Sn	0.000000	0.000000	0.000000
Cd	2.096669	2.096669	6.290007
O	0.000000	2.096669	6.290007
O	2.096669	0.000000	6.290007
O	2.096669	2.096669	4.193338
Sn	0.000000	0.000000	4.193338
Cd	2.096669	6.290007	2.096669
O	0.000000	6.290007	2.096669
O	2.096669	4.193338	2.096669
O	2.096669	6.290007	0.000000
Sn	0.000000	4.193338	0.000000
Cd	2.096669	6.290007	6.290007
O	0.000000	6.290007	6.290007
O	2.096669	4.193338	6.290007
O	2.096669	6.290007	4.193338
Sn	0.000000	4.193338	4.193338
Cd	6.290007	2.096669	2.096669
O	4.193338	2.096669	2.096669
O	6.290007	0.000000	2.096669
O	6.290007	2.096669	0.000000
Sn	4.193338	0.000000	0.000000
Cd	6.290007	2.096669	6.290007
O	4.193338	2.096669	6.290007
O	6.290007	0.000000	6.290007
O	6.290007	2.096669	4.193338
Sn	4.193338	0.000000	4.193338
Cd	6.290007	6.290007	2.096669
O	4.193338	6.290007	2.096669
O	6.290007	4.193338	2.096669
O	6.290007	6.290007	0.000000
Sn	4.193338	4.193338	0.000000
Cd	6.290007	6.290007	6.290007
O	4.193338	6.290007	6.290007
O	6.290007	4.193338	6.290007
O	6.290007	6.290007	4.193338
Sn	4.193338	4.193338	4.193338
