112

Eu	0.000000	0.000000	0.000000
Eu	2.421841	-2.421190	-2.421190
Hg	-1.210921	-1.210590	-3.631780
Hg	3.632752	1.210590	-1.210590
Hg	6.054593	-1.210590	-1.210590
Hg	1.210921	1.210590	-3.631780
O	3.751561	-1.090845	-1.090845
O	-1.092112	1.090845	-3.751524
O	1.092112	-1.090845	-3.751524
O	1.329720	1.330344	-1.330344
O	5.935794	1.090845	-1.090845
O	1.329720	3.512025	-3.512025
O	3.513953	1.330344	-3.512025
O	3.513953	3.512025	-1.330344
Eu	4.843675	4.842371	0.000000
Eu	7.265517	2.421181	-2.421190
Hg	3.632755	3.631781	-3.631780
Hg	8.476427	6.052961	-1.210590
Hg	10.898269	3.631781	-1.210590
Hg	6.054596	6.052961	-3.631780
O	8.595236	3.751526	-1.090845
O	3.751564	5.933217	-3.751524
O	5.935787	3.751526	-3.751524
O	6.173395	6.172716	-1.330344
O	10.779470	5.933217	-1.090845
O	6.173395	8.354397	-3.512025
O	8.357628	6.172716	-3.512025
O	8.357628	8.354397	-1.330344
Eu	-4.843675	0.000000	-4.842371
Eu	-2.421834	-2.421190	-7.263561
Hg	-6.054596	-1.210590	-8.474151
Hg	-1.210924	1.210590	-6.052961
Hg	1.210918	-1.210590	-6.052961
Hg	-3.632755	1.210590	-8.474151
O	-1.092115	-1.090845	-5.933217
O	-5.935787	1.090845	-8.593896
O	-3.751564	-1.090845	-8.593896
O	-3.513956	1.330344	-6.172716
O	1.092119	1.090845	-5.933217
O	-3.513956	3.512025	-8.354397
O	-1.329723	1.330344	-8.354397
O	-1.329723	3.512025	-6.172716
Eu	0.000000	4.842371	-4.842371
Eu	2.421841	2.421181	-7.263561
Hg	-1.210921	3.631781	-8.474151
Hg	3.632752	6.052961	-6.052961
Hg	6.054593	3.631781	-6.052961
Hg	1.210921	6.052961	-8.474151
O	3.751561	3.751526	-5.933217
O	-1.092112	5.933217	-8.593896
O	1.092112	3.751526	-8.593896
O	1.329720	6.172716	-6.172716
O	5.935794	5.933217	-5.933217
O	1.329720	8.354397	-8.354397
O	3.513953	6.172716	-8.354397
O	3.513953	8.354397	-6.172716
Eu	4.843675	-4.842371	0.000000
Eu	7.265517	-7.263561	-2.421190
Hg	3.632755	-6.052961	-3.631780
Hg	8.476427	-3.631781	-1.210590
Hg	10.898269	-6.052961	-1.210590
Hg	6.054596	-3.631781	-3.631780
O	8.595236	-5.933217	-1.090845
O	3.751564	-3.751526	-3.751524
O	5.935787	-5.933217	-3.751524
O	6.173395	-3.512027	-1.330344
O	10.779470	-3.751526	-1.090845
O	6.173395	-1.330346	-3.512025
O	8.357628	-3.512027	-3.512025
O	8.357628	-1.330346	-1.330344
Eu	9.687351	0.000000	0.000000
Eu	12.109192	-2.421190	-2.421190
Hg	8.476430	-1.210590	-3.631780
Hg	13.320103	1.210590	-1.210590
Hg	15.741944	-1.210590	-1.210590
Hg	10.898271	1.210590	-3.631780
O	13.438912	-1.090845	-1.090845
O	8.595239	1.090845	-3.751524
O	10.779463	-1.090845	-3.751524
O	11.017071	1.330344	-1.330344
O	15.623145	1.090845	-1.090845
O	11.017071	3.512025	-3.512025
O	13.201304	1.330344	-3.512025
O	13.201304	3.512025	-1.330344
Eu	0.000000	-4.842371	-4.842371
Eu	2.421841	-7.263561	-7.263561
Hg	-1.210921	-6.052961	-8.474151
Hg	3.632752	-3.631781	-6.052961
Hg	6.054593	-6.052961	-6.052961
Hg	1.210921	-3.631781	-8.474151
O	3.751561	-5.933217	-5.933217
O	-1.092112	-3.751526	-8.593896
O	1.092112	-5.933217	-8.593896
O	1.329720	-3.512027	-6.172716
O	5.935794	-3.751526	-5.933217
O	1.329720	-1.330346	-8.354397
O	3.513953	-3.512027	-8.354397
O	3.513953	-1.330346	-6.172716
Eu	4.843675	0.000000	-4.842371
Eu	7.265517	-2.421190	-7.263561
Hg	3.632755	-1.210590	-8.474151
Hg	8.476427	1.210590	-6.052961
Hg	10.898269	-1.210590	-6.052961
Hg	6.054596	1.210590	-8.474151
O	8.595236	-1.090845	-5.933217
O	3.751564	1.090845	-8.593896
O	5.935787	-1.090845	-8.593896
O	6.173395	1.330344	-6.172716
O	10.779470	1.090845	-5.933217
O	6.173395	3.512025	-8.354397
O	8.357628	1.330344	-8.354397
O	8.357628	3.512025	-6.172716
