112

Cr	0.000000	0.000000	0.000000
Cr	2.184340	-2.184947	-2.184947
O	3.373812	-0.994486	-0.994486
O	-0.994867	0.994486	-3.375409
O	0.994867	-0.994486	-3.375409
O	1.189472	1.190462	-1.190462
O	5.363547	0.994486	-0.994486
O	1.189472	3.179433	-3.179433
O	3.179207	3.179433	-1.190462
O	3.179207	1.190462	-3.179433
Re	-1.092170	-1.092474	-3.277421
Re	3.276510	1.092474	-1.092474
Re	5.460849	-1.092474	-1.092474
Re	1.092170	1.092474	-3.277421
Cr	4.368679	4.369895	0.000000
Cr	6.553019	2.184947	-2.184947
O	7.742491	3.375409	-0.994486
O	3.373812	5.364380	-3.375409
O	5.363547	3.375409	-3.375409
O	5.558152	5.560357	-1.190462
O	9.732226	5.364380	-0.994486
O	5.558152	7.549328	-3.179433
O	7.547887	7.549328	-1.190462
O	7.547886	5.560357	-3.179433
Re	3.276510	3.277421	-3.277421
Re	7.645189	5.462368	-1.092474
Re	9.829529	3.277421	-1.092474
Re	5.460849	5.462368	-3.277421
Cr	-4.368679	0.000000	-4.369895
Cr	-2.184340	-2.184947	-6.554842
O	-0.994867	-0.994486	-5.364381
O	-5.363547	0.994486	-7.745304
O	-3.373812	-0.994486	-7.745304
O	-3.179207	1.190462	-5.560356
O	0.994867	0.994486	-5.364381
O	-3.179207	3.179433	-7.549328
O	-1.189472	3.179433	-5.560356
O	-1.189472	1.190462	-7.549328
Re	-5.460849	-1.092474	-7.647316
Re	-1.092170	1.092474	-5.462368
Re	1.092170	-1.092474	-5.462368
Re	-3.276510	1.092474	-7.647316
Cr	0.000000	4.369895	-4.369895
Cr	2.184340	2.184947	-6.554842
O	3.373812	3.375409	-5.364381
O	-0.994867	5.364380	-7.745304
O	0.994867	3.375409	-7.745304
O	1.189472	5.560357	-5.560356
O	5.363547	5.364380	-5.364381
O	1.189472	7.549328	-7.549328
O	3.179207	7.549328	-5.560356
O	3.179207	5.560357	-7.549328
Re	-1.092170	3.277421	-7.647316
Re	3.276510	5.462368	-5.462368
Re	5.460849	3.277421	-5.462368
Re	1.092170	5.462368	-7.647316
Cr	4.368679	-4.369895	0.000000
Cr	6.553019	-6.554842	-2.184947
O	7.742491	-5.364381	-0.994486
O	3.373812	-3.375409	-3.375409
O	5.363547	-5.364381	-3.375409
O	5.558152	-3.179433	-1.190462
O	9.732226	-3.375409	-0.994486
O	5.558152	-1.190462	-3.179433
O	7.547887	-1.190462	-1.190462
O	7.547886	-3.179433	-3.179433
Re	3.276510	-5.462368	-3.277421
Re	7.645189	-3.277421	-1.092474
Re	9.829529	-5.462368	-1.092474
Re	5.460849	-3.277421	-3.277421
Cr	8.737359	0.000000	0.000000
Cr	10.921699	-2.184947	-2.184947
O	12.111171	-0.994486	-0.994486
O	7.742491	0.994486	-3.375409
O	9.732226	-0.994486	-3.375409
O	9.926831	1.190462	-1.190462
O	14.100906	0.994486	-0.994486
O	9.926831	3.179433	-3.179433
O	11.916566	3.179433	-1.190462
O	11.916566	1.190462	-3.179433
Re	7.645189	-1.092474	-3.277421
Re	12.013868	1.092474	-1.092474
Re	14.198208	-1.092474	-1.092474
Re	9.829529	1.092474	-3.277421
Cr	0.000000	-4.369895	-4.369895
Cr	2.184340	-6.554842	-6.554842
O	3.373812	-5.364381	-5.364381
O	-0.994867	-3.375409	-7.745304
O	0.994867	-5.364381	-7.745304
O	1.189472	-3.179433	-5.560356
O	5.363547	-3.375409	-5.364381
O	1.189472	-1.190462	-7.549328
O	3.179207	-1.190462	-5.560356
O	3.179207	-3.179433	-7.549328
Re	-1.092170	-5.462368	-7.647316
Re	3.276510	-3.277421	-5.462368
Re	5.460849	-5.462368	-5.462368
Re	1.092170	-3.277421	-7.647316
Cr	4.368679	0.000000	-4.369895
Cr	6.553019	-2.184947	-6.554842
O	7.742491	-0.994486	-5.364381
O	3.373812	0.994486	-7.745304
O	5.363547	-0.994486	-7.745304
O	5.558152	1.190462	-5.560356
O	9.732226	0.994486	-5.364381
O	5.558152	3.179433	-7.549328
O	7.547887	3.179433	-5.560356
O	7.547886	1.190462	-7.549328
Re	3.276510	-1.092474	-7.647316
Re	7.645189	1.092474	-5.462368
Re	9.829529	-1.092474	-5.462368
Re	5.460849	1.092474	-7.647316
