112

O	2.000100	2.000100	2.000100
O	4.190920	4.190920	2.000100
O	2.000100	4.190920	4.190920
O	4.190920	2.000100	4.190920
O	6.254580	6.254580	6.254580
O	4.063770	4.063770	6.254580
O	4.063770	6.254580	4.063770
O	6.254580	4.063770	4.063770
Si	1.031840	1.031840	1.031840
Si	7.222840	7.222840	7.222840
Zn	4.127330	4.127330	4.127330
Zn	6.191000	6.191000	4.127330
Zn	4.127330	6.191000	6.191000
Zn	6.191000	4.127330	6.191000
O	6.127439	6.127439	2.000100
O	8.318259	8.318259	2.000100
O	6.127439	8.318259	4.190920
O	8.318259	6.127439	4.190920
O	10.381919	10.381919	6.254580
O	8.191109	8.191109	6.254580
O	8.191109	10.381919	4.063770
O	10.381919	8.191109	4.063770
Si	5.159179	5.159179	1.031840
Si	11.350179	11.350179	7.222840
Zn	8.254669	8.254669	4.127330
Zn	10.318339	10.318339	4.127330
Zn	8.254669	10.318339	6.191000
Zn	10.318339	8.254669	6.191000
O	6.127439	2.000100	6.127439
O	8.318259	4.190920	6.127439
O	6.127439	4.190920	8.318259
O	8.318259	2.000100	8.318259
O	10.381919	6.254580	10.381919
O	8.191109	4.063770	10.381919
O	8.191109	6.254580	8.191109
O	10.381919	4.063770	8.191109
Si	5.159179	1.031840	5.159179
Si	11.350179	7.222840	11.350179
Zn	8.254669	4.127330	8.254669
Zn	10.318339	6.191000	8.254669
Zn	8.254669	6.191000	10.318339
Zn	10.318339	4.127330	10.318339
O	10.254778	6.127439	6.127439
O	12.445598	8.318259	6.127439
O	10.254778	8.318259	8.318259
O	12.445598	6.127439	8.318259
O	14.509258	10.381919	10.381919
O	12.318448	8.191109	10.381919
O	12.318448	10.381919	8.191109
O	14.509258	8.191109	8.191109
Si	9.286518	5.159179	5.159179
Si	15.477518	11.350179	11.350179
Zn	12.382008	8.254669	8.254669
Zn	14.445678	10.318339	8.254669
Zn	12.382008	10.318339	10.318339
Zn	14.445678	8.254669	10.318339
O	2.000100	6.127439	6.127439
O	4.190920	8.318259	6.127439
O	2.000100	8.318259	8.318259
O	4.190920	6.127439	8.318259
O	6.254580	10.381919	10.381919
O	4.063770	8.191109	10.381919
O	4.063770	10.381919	8.191109
O	6.254580	8.191109	8.191109
Si	1.031840	5.159179	5.159179
Si	7.222840	11.350179	11.350179
Zn	4.127330	8.254669	8.254669
Zn	6.191000	10.318339	8.254669
Zn	4.127330	10.318339	10.318339
Zn	6.191000	8.254669	10.318339
O	6.127439	10.254778	6.127439
O	8.318259	12.445598	6.127439
O	6.127439	12.445598	8.318259
O	8.318259	10.254778	8.318259
O	10.381919	14.509258	10.381919
O	8.191109	12.318448	10.381919
O	8.191109	14.509258	8.191109
O	10.381919	12.318448	8.191109
Si	5.159179	9.286518	5.159179
Si	11.350179	15.477518	11.350179
Zn	8.254669	12.382008	8.254669
Zn	10.318339	14.445678	8.254669
Zn	8.254669	14.445678	10.318339
Zn	10.318339	12.382008	10.318339
O	6.127439	6.127439	10.254778
O	8.318259	8.318259	10.254778
O	6.127439	8.318259	12.445598
O	8.318259	6.127439	12.445598
O	10.381919	10.381919	14.509258
O	8.191109	8.191109	14.509258
O	8.191109	10.381919	12.318448
O	10.381919	8.191109	12.318448
Si	5.159179	5.159179	9.286518
Si	11.350179	11.350179	15.477518
Zn	8.254669	8.254669	12.382008
Zn	10.318339	10.318339	12.382008
Zn	8.254669	10.318339	14.445678
Zn	10.318339	8.254669	14.445678
O	10.254778	10.254778	10.254778
O	12.445598	12.445598	10.254778
O	10.254778	12.445598	12.445598
O	12.445598	10.254778	12.445598
O	14.509258	14.509258	14.509258
O	12.318448	12.318448	14.509258
O	12.318448	14.509258	12.318448
O	14.509258	12.318448	12.318448
Si	9.286518	9.286518	9.286518
Si	15.477518	15.477518	15.477518
Zn	12.382008	12.382008	12.382008
Zn	14.445678	14.445678	12.382008
Zn	12.382008	14.445678	14.445678
Zn	14.445678	12.382008	14.445678
