40

O	0.000000	2.057647	2.057647
O	2.057647	0.000000	2.057647
O	2.057647	2.057647	0.000000
Te	2.057647	2.057647	2.057647
Zn	0.000000	0.000000	0.000000
O	0.000000	2.057647	6.172940
O	2.057647	0.000000	6.172940
O	2.057647	2.057647	4.115293
Te	2.057647	2.057647	6.172940
Zn	0.000000	0.000000	4.115293
O	0.000000	6.172940	2.057647
O	2.057647	4.115293	2.057647
O	2.057647	6.172940	0.000000
Te	2.057647	6.172940	2.057647
Zn	0.000000	4.115293	0.000000
O	0.000000	6.172940	6.172940
O	2.057647	4.115293	6.172940
O	2.057647	6.172940	4.115293
Te	2.057647	6.172940	6.172940
Zn	0.000000	4.115293	4.115293
O	4.115293	2.057647	2.057647
O	6.172940	0.000000	2.057647
O	6.172940	2.057647	0.000000
Te	6.172940	2.057647	2.057647
Zn	4.115293	0.000000	0.000000
O	4.115293	2.057647	6.172940
O	6.172940	0.000000	6.172940
O	6.172940	2.057647	4.115293
Te	6.172940	2.057647	6.172940
Zn	4.115293	0.000000	4.115293
O	4.115293	6.172940	2.057647
O	6.172940	4.115293	2.057647
O	6.172940	6.172940	0.000000
Te	6.172940	6.172940	2.057647
Zn	4.115293	4.115293	0.000000
O	4.115293	6.172940	6.172940
O	6.172940	4.115293	6.172940
O	6.172940	6.172940	4.115293
Te	6.172940	6.172940	6.172940
Zn	4.115293	4.115293	4.115293
