184

B	-3.735927	-1.867963	0.000000
B	-3.735927	0.000000	-1.867963
B	-1.867963	-3.735927	0.000000
B	-1.867963	0.000000	-3.735927
B	0.000000	-3.735927	-1.867963
B	0.000000	-1.867963	-3.735927
Co	-1.141520	-1.141520	1.141520
Co	-1.141520	1.141520	-1.141520
Co	1.141520	-1.141520	-1.141520
Co	-2.594406	-2.594406	-2.594406
O	0.000000	0.000000	0.000000
O	-3.107167	-1.053129	1.053129
O	-3.107167	1.053129	-1.053129
O	-1.053129	-3.107167	1.053129
O	-1.053129	1.053129	-3.107167
O	-4.364686	-1.053129	-1.053129
O	-2.682797	-2.682797	-0.628759
O	-2.682797	-0.628759	-2.682797
O	1.053129	-3.107167	-1.053129
O	1.053129	-1.053129	-3.107167
O	-0.628759	-2.682797	-2.682797
O	-1.053129	-4.364686	-1.053129
O	-1.053129	-1.053129	-4.364686
B	-0.000000	-5.603890	-3.735927
B	-0.000000	-3.735927	-5.603890
B	1.867963	-7.471853	-3.735927
B	1.867963	-3.735927	-7.471853
B	3.735927	-7.471853	-5.603890
B	3.735927	-5.603890	-7.471853
Co	2.594406	-4.877447	-2.594406
Co	2.594406	-2.594406	-4.877447
Co	4.877447	-4.877447	-4.877447
Co	1.141520	-6.330333	-6.330333
O	3.735927	-3.735927	-3.735927
O	0.628759	-4.789056	-2.682797
O	0.628759	-2.682797	-4.789056
O	2.682797	-6.843094	-2.682797
O	2.682797	-2.682797	-6.843094
O	-0.628759	-4.789056	-4.789056
O	1.053129	-6.418724	-4.364686
O	1.053129	-4.364686	-6.418724
O	4.789056	-6.843094	-4.789056
O	4.789056	-4.789056	-6.843094
O	3.107167	-6.418724	-6.418724
O	2.682797	-8.100613	-4.789056
O	2.682797	-4.789056	-8.100613
B	-7.471853	1.867963	-3.735927
B	-7.471853	3.735927	-5.603890
B	-5.603890	0.000000	-3.735927
B	-5.603890	3.735927	-7.471853
B	-3.735927	0.000000	-5.603890
B	-3.735927	1.867963	-7.471853
Co	-4.877447	2.594406	-2.594406
Co	-4.877447	4.877447	-4.877447
Co	-2.594406	2.594406	-4.877447
Co	-6.330333	1.141520	-6.330333
O	-3.735927	3.735927	-3.735927
O	-6.843094	2.682797	-2.682797
O	-6.843094	4.789056	-4.789056
O	-4.789056	0.628759	-2.682797
O	-4.789056	4.789056	-6.843094
O	-8.100613	2.682797	-4.789056
O	-6.418724	1.053129	-4.364686
O	-6.418724	3.107167	-6.418724
O	-2.682797	0.628759	-4.789056
O	-2.682797	2.682797	-6.843094
O	-4.364686	1.053129	-6.418724
O	-4.789056	-0.628759	-4.789056
O	-4.789056	2.682797	-8.100613
B	-3.735927	-1.867963	-7.471853
B	-3.735927	0.000000	-9.339817
B	-1.867963	-3.735927	-7.471853
B	-1.867963	0.000000	-11.207780
B	0.000000	-3.735927	-9.339817
B	0.000000	-1.867963	-11.207780
Co	-1.141520	-1.141520	-6.330333
Co	-1.141520	1.141520	-8.613374
Co	1.141520	-1.141520	-8.613374
Co	-2.594406	-2.594406	-10.066260
O	0.000000	0.000000	-7.471853
O	-3.107167	-1.053129	-6.418724
O	-3.107167	1.053129	-8.524983
O	-1.053129	-3.107167	-6.418724
O	-1.053129	1.053129	-10.579020
O	-4.364686	-1.053129	-8.524983
O	-2.682797	-2.682797	-8.100613
O	-2.682797	-0.628759	-10.154651
O	1.053129	-3.107167	-8.524983
O	1.053129	-1.053129	-10.579020
O	-0.628759	-2.682797	-10.154651
O	-1.053129	-4.364686	-8.524983
O	-1.053129	-1.053129	-11.836539
B	-7.471853	-5.603890	3.735927
B	-7.471853	-3.735927	1.867963
B	-5.603890	-7.471853	3.735927
B	-5.603890	-3.735927	0.000000
B	-3.735927	-7.471853	1.867963
B	-3.735927	-5.603890	0.000000
Co	-4.877447	-4.877447	4.877447
Co	-4.877447	-2.594406	2.594406
Co	-2.594406	-4.877447	2.594406
Co	-6.330333	-6.330333	1.141520
O	-3.735927	-3.735927	3.735927
O	-6.843094	-4.789056	4.789056
O	-6.843094	-2.682797	2.682797
O	-4.789056	-6.843094	4.789056
O	-4.789056	-2.682797	0.628759
O	-8.100613	-4.789056	2.682797
O	-6.418724	-6.418724	3.107167
O	-6.418724	-4.364686	1.053129
O	-2.682797	-6.843094	2.682797
O	-2.682797	-4.789056	0.628759
O	-4.364686	-6.418724	1.053129
O	-4.789056	-8.100613	2.682797
O	-4.789056	-4.789056	-0.628759
B	-3.735927	-9.339817	0.000000
B	-3.735927	-7.471853	-1.867963
B	-1.867963	-11.207780	0.000000
B	-1.867963	-7.471853	-3.735927
B	0.000000	-11.207780	-1.867963
B	0.000000	-9.339817	-3.735927
Co	-1.141520	-8.613374	1.141520
Co	-1.141520	-6.330333	-1.141520
Co	1.141520	-8.613374	-1.141520
Co	-2.594406	-10.066260	-2.594406
O	0.000000	-7.471853	0.000000
O	-3.107167	-8.524983	1.053129
O	-3.107167	-6.418724	-1.053129
O	-1.053129	-10.579020	1.053129
O	-1.053129	-6.418724	-3.107167
O	-4.364686	-8.524983	-1.053129
O	-2.682797	-10.154651	-0.628759
O	-2.682797	-8.100613	-2.682797
O	1.053129	-10.579020	-1.053129
O	1.053129	-8.524983	-3.107167
O	-0.628759	-10.154651	-2.682797
O	-1.053129	-11.836539	-1.053129
O	-1.053129	-8.524983	-4.364686
B	-11.207780	-1.867963	0.000000
B	-11.207780	0.000000	-1.867963
B	-9.339817	-3.735927	0.000000
B	-9.339817	0.000000	-3.735927
B	-7.471853	-3.735927	-1.867963
B	-7.471853	-1.867963	-3.735927
Co	-8.613374	-1.141520	1.141520
Co	-8.613374	1.141520	-1.141520
Co	-6.330333	-1.141520	-1.141520
Co	-10.066260	-2.594406	-2.594406
O	-7.471853	0.000000	0.000000
O	-10.579020	-1.053129	1.053129
O	-10.579020	1.053129	-1.053129
O	-8.524983	-3.107167	1.053129
O	-8.524983	1.053129	-3.107167
O	-11.836539	-1.053129	-1.053129
O	-10.154651	-2.682797	-0.628759
O	-10.154651	-0.628759	-2.682797
O	-6.418724	-3.107167	-1.053129
O	-6.418724	-1.053129	-3.107167
O	-8.100613	-2.682797	-2.682797
O	-8.524983	-4.364686	-1.053129
O	-8.524983	-1.053129	-4.364686
B	-7.471853	-5.603890	-3.735927
B	-7.471853	-3.735927	-5.603890
B	-5.603890	-7.471853	-3.735927
B	-5.603890	-3.735927	-7.471853
B	-3.735927	-7.471853	-5.603890
B	-3.735927	-5.603890	-7.471853
Co	-4.877447	-4.877447	-2.594406
Co	-4.877447	-2.594406	-4.877447
Co	-2.594406	-4.877447	-4.877447
Co	-6.330333	-6.330333	-6.330333
O	-3.735927	-3.735927	-3.735927
O	-6.843094	-4.789056	-2.682797
O	-6.843094	-2.682797	-4.789056
O	-4.789056	-6.843094	-2.682797
O	-4.789056	-2.682797	-6.843094
O	-8.100613	-4.789056	-4.789056
O	-6.418724	-6.418724	-4.364686
O	-6.418724	-4.364686	-6.418724
O	-2.682797	-6.843094	-4.789056
O	-2.682797	-4.789056	-6.843094
O	-4.364686	-6.418724	-6.418724
O	-4.789056	-8.100613	-4.789056
O	-4.789056	-4.789056	-8.100613
