40

Er	0.000000	0.000000	0.000000
O	2.001180	2.001180	0.000000
O	0.000000	2.001180	2.001180
O	2.001180	0.000000	2.001180
Pt	2.001180	2.001180	2.001180
Er	0.000000	0.000000	4.002355
O	2.001180	2.001180	4.002355
O	0.000000	2.001180	6.003535
O	2.001180	0.000000	6.003535
Pt	2.001180	2.001180	6.003535
Er	0.000000	4.002355	0.000000
O	2.001180	6.003535	0.000000
O	0.000000	6.003535	2.001180
O	2.001180	4.002355	2.001180
Pt	2.001180	6.003535	2.001180
Er	0.000000	4.002355	4.002355
O	2.001180	6.003535	4.002355
O	0.000000	6.003535	6.003535
O	2.001180	4.002355	6.003535
Pt	2.001180	6.003535	6.003535
Er	4.002355	0.000000	0.000000
O	6.003535	2.001180	0.000000
O	4.002355	2.001180	2.001180
O	6.003535	0.000000	2.001180
Pt	6.003535	2.001180	2.001180
Er	4.002355	0.000000	4.002355
O	6.003535	2.001180	4.002355
O	4.002355	2.001180	6.003535
O	6.003535	0.000000	6.003535
Pt	6.003535	2.001180	6.003535
Er	4.002355	4.002355	0.000000
O	6.003535	6.003535	0.000000
O	4.002355	6.003535	2.001180
O	6.003535	4.002355	2.001180
Pt	6.003535	6.003535	2.001180
Er	4.002355	4.002355	4.002355
O	6.003535	6.003535	4.002355
O	4.002355	6.003535	6.003535
O	6.003535	4.002355	6.003535
Pt	6.003535	6.003535	6.003535
