112

O	0.965602	0.959297	-0.959297
O	1.126449	-1.129605	-3.048188
O	3.057654	-1.129605	-1.129605
O	-1.126449	1.129605	-3.048188
O	3.218510	3.218497	-0.959297
O	3.218510	0.959297	-3.218497
O	0.965602	3.218497	-3.218497
O	5.310561	1.129605	-1.129605
Si	0.000000	0.000000	0.000000
Si	2.092051	-2.088892	-2.088892
V	-1.046026	-1.044446	-3.133347
V	3.138077	1.044446	-1.044446
V	1.046026	1.044446	-3.133347
V	5.230138	-1.044446	-1.044446
O	5.149711	5.137089	-0.959297
O	5.310557	3.048187	-3.048188
O	7.241762	3.048187	-1.129605
O	3.057660	5.307397	-3.048188
O	7.402618	7.396288	-0.959297
O	7.402618	5.137089	-3.218497
O	5.149711	7.396288	-3.218497
O	9.494670	5.307397	-1.129605
Si	4.184109	4.177792	0.000000
Si	6.276160	2.088900	-2.088892
V	3.138083	3.133346	-3.133347
V	7.322185	5.222238	-1.044446
V	5.230134	5.222238	-3.133347
V	9.414246	3.133346	-1.044446
O	-3.218506	0.959297	-5.137089
O	-3.057660	-1.129605	-7.225980
O	-1.126455	-1.129605	-5.307397
O	-5.310557	1.129605	-7.225980
O	-0.965599	3.218497	-5.137089
O	-0.965599	0.959297	-7.396288
O	-3.218506	3.218497	-7.396288
O	1.126452	1.129605	-5.307397
Si	-4.184109	0.000000	-4.177792
Si	-2.092057	-2.088892	-6.266683
V	-5.230134	-1.044446	-7.311139
V	-1.046032	1.044446	-5.222238
V	-3.138083	1.044446	-7.311139
V	1.046029	-1.044446	-5.222238
O	0.965602	5.137089	-5.137089
O	1.126449	3.048187	-7.225980
O	3.057654	3.048187	-5.307397
O	-1.126449	5.307397	-7.225980
O	3.218510	7.396288	-5.137089
O	3.218510	5.137089	-7.396288
O	0.965602	7.396288	-7.396288
O	5.310561	5.307397	-5.307397
Si	0.000000	4.177792	-4.177792
Si	2.092051	2.088900	-6.266683
V	-1.046026	3.133346	-7.311139
V	3.138077	5.222238	-5.222238
V	1.046026	5.222238	-7.311139
V	5.230138	3.133346	-5.222238
O	5.149711	-3.218495	-0.959297
O	5.310557	-5.307397	-3.048188
O	7.241762	-5.307397	-1.129605
O	3.057660	-3.048187	-3.048188
O	7.402618	-0.959295	-0.959297
O	7.402618	-3.218495	-3.218497
O	5.149711	-0.959295	-3.218497
O	9.494670	-3.048187	-1.129605
Si	4.184109	-4.177792	0.000000
Si	6.276160	-6.266683	-2.088892
V	3.138083	-5.222238	-3.133347
V	7.322185	-3.133346	-1.044446
V	5.230134	-3.133346	-3.133347
V	9.414246	-5.222238	-1.044446
O	9.333819	0.959297	-0.959297
O	9.494666	-1.129605	-3.048188
O	11.425871	-1.129605	-1.129605
O	7.241768	1.129605	-3.048188
O	11.586727	3.218497	-0.959297
O	11.586727	0.959297	-3.218497
O	9.333820	3.218497	-3.218497
O	13.678778	1.129605	-1.129605
Si	8.368217	0.000000	0.000000
Si	10.460268	-2.088892	-2.088892
V	7.322192	-1.044446	-3.133347
V	11.506294	1.044446	-1.044446
V	9.414243	1.044446	-3.133347
V	13.598355	-1.044446	-1.044446
O	0.965602	-3.218495	-5.137089
O	1.126449	-5.307397	-7.225980
O	3.057654	-5.307397	-5.307397
O	-1.126449	-3.048187	-7.225980
O	3.218510	-0.959295	-5.137089
O	3.218510	-3.218495	-7.396288
O	0.965602	-0.959295	-7.396288
O	5.310561	-3.048187	-5.307397
Si	0.000000	-4.177792	-4.177792
Si	2.092051	-6.266683	-6.266683
V	-1.046026	-5.222238	-7.311139
V	3.138077	-3.133346	-5.222238
V	1.046026	-3.133346	-7.311139
V	5.230138	-5.222238	-5.222238
O	5.149711	0.959297	-5.137089
O	5.310557	-1.129605	-7.225980
O	7.241762	-1.129605	-5.307397
O	3.057660	1.129605	-7.225980
O	7.402618	3.218497	-5.137089
O	7.402618	0.959297	-7.396288
O	5.149711	3.218497	-7.396288
O	9.494670	1.129605	-5.307397
Si	4.184109	0.000000	-4.177792
Si	6.276160	-2.088892	-6.266683
V	3.138083	-1.044446	-7.311139
V	7.322185	1.044446	-5.222238
V	5.230134	1.044446	-7.311139
V	9.414246	-1.044446	-5.222238
