40

F	1.857550	1.857550	1.857550
O	0.000000	1.857550	1.857550
O	1.857550	0.000000	1.857550
O	1.857550	1.857550	0.000000
S	0.000000	0.000000	0.000000
F	1.857550	1.857550	5.572651
O	0.000000	1.857550	5.572651
O	1.857550	0.000000	5.572651
O	1.857550	1.857550	3.715101
S	0.000000	0.000000	3.715101
F	1.857550	5.572651	1.857550
O	0.000000	5.572651	1.857550
O	1.857550	3.715101	1.857550
O	1.857550	5.572651	0.000000
S	0.000000	3.715101	0.000000
F	1.857550	5.572651	5.572651
O	0.000000	5.572651	5.572651
O	1.857550	3.715101	5.572651
O	1.857550	5.572651	3.715101
S	0.000000	3.715101	3.715101
F	5.572651	1.857550	1.857550
O	3.715101	1.857550	1.857550
O	5.572651	0.000000	1.857550
O	5.572651	1.857550	0.000000
S	3.715101	0.000000	0.000000
F	5.572651	1.857550	5.572651
O	3.715101	1.857550	5.572651
O	5.572651	0.000000	5.572651
O	5.572651	1.857550	3.715101
S	3.715101	0.000000	3.715101
F	5.572651	5.572651	1.857550
O	3.715101	5.572651	1.857550
O	5.572651	3.715101	1.857550
O	5.572651	5.572651	0.000000
S	3.715101	3.715101	0.000000
F	5.572651	5.572651	5.572651
O	3.715101	5.572651	5.572651
O	5.572651	3.715101	5.572651
O	5.572651	5.572651	3.715101
S	3.715101	3.715101	3.715101
