40

Eu	2.155163	2.155163	2.155163
O	2.155163	2.155163	0.000000
O	2.155163	0.000000	2.155163
O	0.000000	2.155163	2.155163
Sm	0.000000	0.000000	0.000000
Eu	2.155163	2.155163	6.465490
O	2.155163	2.155163	4.310327
O	2.155163	0.000000	6.465490
O	0.000000	2.155163	6.465490
Sm	0.000000	0.000000	4.310327
Eu	2.155163	6.465490	2.155163
O	2.155163	6.465490	0.000000
O	2.155163	4.310327	2.155163
O	0.000000	6.465490	2.155163
Sm	0.000000	4.310327	0.000000
Eu	2.155163	6.465490	6.465490
O	2.155163	6.465490	4.310327
O	2.155163	4.310327	6.465490
O	0.000000	6.465490	6.465490
Sm	0.000000	4.310327	4.310327
Eu	6.465490	2.155163	2.155163
O	6.465490	2.155163	0.000000
O	6.465490	0.000000	2.155163
O	4.310327	2.155163	2.155163
Sm	4.310327	0.000000	0.000000
Eu	6.465490	2.155163	6.465490
O	6.465490	2.155163	4.310327
O	6.465490	0.000000	6.465490
O	4.310327	2.155163	6.465490
Sm	4.310327	0.000000	4.310327
Eu	6.465490	6.465490	2.155163
O	6.465490	6.465490	0.000000
O	6.465490	4.310327	2.155163
O	4.310327	6.465490	2.155163
Sm	4.310327	4.310327	0.000000
Eu	6.465490	6.465490	6.465490
O	6.465490	6.465490	4.310327
O	6.465490	4.310327	6.465490
O	4.310327	6.465490	6.465490
Sm	4.310327	4.310327	4.310327
