112

Mn	0.000000	0.000000	0.000000
Mn	2.175153	-2.175773	-2.175773
O	3.339997	-1.010124	-1.010124
O	-1.010309	1.010124	-3.341422
O	1.010309	-1.010124	-3.341422
O	1.164844	1.165649	-1.165649
O	5.360615	1.010124	-1.010124
O	1.164844	3.185897	-3.185897
O	3.185462	3.185897	-1.165649
O	3.185462	1.165649	-3.185897
Tc	-1.087577	-1.087886	-3.263659
Tc	3.262730	1.087886	-1.087886
Tc	5.437883	-1.087886	-1.087886
Tc	1.087577	1.087886	-3.263659
Mn	4.350306	4.351545	0.000000
Mn	6.525459	2.175773	-2.175773
O	7.690303	3.341422	-1.010124
O	3.339997	5.361669	-3.341422
O	5.360615	3.341422	-3.341422
O	5.515150	5.517194	-1.165649
O	9.710921	5.361669	-1.010124
O	5.515150	7.537442	-3.185897
O	7.535768	7.537442	-1.165649
O	7.535768	5.517194	-3.185897
Tc	3.262730	3.263659	-3.263659
Tc	7.613036	5.439432	-1.087886
Tc	9.788189	3.263659	-1.087886
Tc	5.437883	5.439432	-3.263659
Mn	-4.350306	0.000000	-4.351545
Mn	-2.175153	-2.175773	-6.527318
O	-1.010309	-1.010124	-5.361669
O	-5.360615	1.010124	-7.692967
O	-3.339997	-1.010124	-7.692967
O	-3.185462	1.165649	-5.517194
O	1.010309	1.010124	-5.361669
O	-3.185462	3.185897	-7.537442
O	-1.164844	3.185897	-5.517194
O	-1.164844	1.165649	-7.537442
Tc	-5.437883	-1.087886	-7.615204
Tc	-1.087577	1.087886	-5.439432
Tc	1.087577	-1.087886	-5.439432
Tc	-3.262730	1.087886	-7.615204
Mn	0.000000	4.351545	-4.351545
Mn	2.175153	2.175773	-6.527318
O	3.339997	3.341422	-5.361669
O	-1.010309	5.361669	-7.692967
O	1.010309	3.341422	-7.692967
O	1.164844	5.517194	-5.517194
O	5.360615	5.361669	-5.361669
O	1.164844	7.537442	-7.537442
O	3.185462	7.537442	-5.517194
O	3.185462	5.517194	-7.537442
Tc	-1.087577	3.263659	-7.615204
Tc	3.262730	5.439432	-5.439432
Tc	5.437883	3.263659	-5.439432
Tc	1.087577	5.439432	-7.615204
Mn	4.350306	-4.351545	0.000000
Mn	6.525459	-6.527318	-2.175773
O	7.690303	-5.361669	-1.010124
O	3.339997	-3.341422	-3.341422
O	5.360615	-5.361669	-3.341422
O	5.515150	-3.185897	-1.165649
O	9.710921	-3.341422	-1.010124
O	5.515150	-1.165649	-3.185897
O	7.535768	-1.165649	-1.165649
O	7.535768	-3.185897	-3.185897
Tc	3.262730	-5.439432	-3.263659
Tc	7.613036	-3.263659	-1.087886
Tc	9.788189	-5.439432	-1.087886
Tc	5.437883	-3.263659	-3.263659
Mn	8.700612	0.000000	0.000000
Mn	10.875765	-2.175773	-2.175773
O	12.040610	-1.010124	-1.010124
O	7.690303	1.010124	-3.341422
O	9.710921	-1.010124	-3.341422
O	9.865456	1.165649	-1.165649
O	14.061227	1.010124	-1.010124
O	9.865457	3.185897	-3.185897
O	11.886074	3.185897	-1.165649
O	11.886074	1.165649	-3.185897
Tc	7.613036	-1.087886	-3.263659
Tc	11.963342	1.087886	-1.087886
Tc	14.138495	-1.087886	-1.087886
Tc	9.788189	1.087886	-3.263659
Mn	0.000000	-4.351545	-4.351545
Mn	2.175153	-6.527318	-6.527318
O	3.339997	-5.361669	-5.361669
O	-1.010309	-3.341422	-7.692967
O	1.010309	-5.361669	-7.692967
O	1.164844	-3.185897	-5.517194
O	5.360615	-3.341422	-5.361669
O	1.164844	-1.165649	-7.537442
O	3.185462	-1.165649	-5.517194
O	3.185462	-3.185897	-7.537442
Tc	-1.087577	-5.439432	-7.615204
Tc	3.262730	-3.263659	-5.439432
Tc	5.437883	-5.439432	-5.439432
Tc	1.087577	-3.263659	-7.615204
Mn	4.350306	0.000000	-4.351545
Mn	6.525459	-2.175773	-6.527318
O	7.690303	-1.010124	-5.361669
O	3.339997	1.010124	-7.692967
O	5.360615	-1.010124	-7.692967
O	5.515150	1.165649	-5.517194
O	9.710921	1.010124	-5.361669
O	5.515150	3.185897	-7.537442
O	7.535768	3.185897	-5.517194
O	7.535768	1.165649	-7.537442
Tc	3.262730	-1.087886	-7.615204
Tc	7.613036	1.087886	-5.439432
Tc	9.788189	-1.087886	-5.439432
Tc	5.437883	1.087886	-7.615204
