112

Cu	0.000000	0.000000	0.000000
Cu	2.465772	-2.435124	-2.435124
La	-1.232886	-1.217562	-3.652687
La	3.698659	1.217562	-1.217562
La	6.164431	-1.217562	-1.217562
La	1.232886	1.217562	-3.652687
O	3.725727	-1.191424	-1.191424
O	-1.205818	1.191424	-3.678825
O	1.205818	-1.191424	-3.678825
O	1.259955	1.243700	-1.243700
O	6.137362	1.191424	-1.191424
O	1.259955	3.626549	-3.626549
O	3.671590	3.626549	-1.243700
O	3.671590	1.243700	-3.626549
Cu	4.931545	4.870249	0.000000
Cu	7.397317	2.435124	-2.435124
La	3.698659	3.652687	-3.652687
La	8.630203	6.087811	-1.217562
La	11.095976	3.652687	-1.217562
La	6.164431	6.087811	-3.652687
O	8.657272	3.678825	-1.191424
O	3.725727	6.061673	-3.678825
O	6.137362	3.678825	-3.678825
O	6.191499	6.113949	-1.243700
O	11.068907	6.061673	-1.191424
O	6.191499	8.496797	-3.626549
O	8.603135	8.496797	-1.243700
O	8.603135	6.113949	-3.626549
Cu	-4.931545	0.000000	-4.870249
Cu	-2.465772	-2.435124	-7.305373
La	-6.164431	-1.217562	-8.522935
La	-1.232886	1.217562	-6.087811
La	1.232886	-1.217562	-6.087811
La	-3.698659	1.217562	-8.522935
O	-1.205818	-1.191424	-6.061673
O	-6.137362	1.191424	-8.549073
O	-3.725727	-1.191424	-8.549073
O	-3.671590	1.243700	-6.113949
O	1.205818	1.191424	-6.061673
O	-3.671590	3.626549	-8.496797
O	-1.259955	3.626549	-6.113949
O	-1.259955	1.243700	-8.496797
Cu	0.000000	4.870249	-4.870249
Cu	2.465772	2.435124	-7.305373
La	-1.232886	3.652687	-8.522935
La	3.698659	6.087811	-6.087811
La	6.164431	3.652687	-6.087811
La	1.232886	6.087811	-8.522935
O	3.725727	3.678825	-6.061673
O	-1.205818	6.061673	-8.549073
O	1.205818	3.678825	-8.549073
O	1.259955	6.113949	-6.113949
O	6.137362	6.061673	-6.061673
O	1.259955	8.496797	-8.496797
O	3.671590	8.496797	-6.113949
O	3.671590	6.113949	-8.496797
Cu	4.931545	-4.870249	0.000000
Cu	7.397317	-7.305373	-2.435124
La	3.698659	-6.087811	-3.652687
La	8.630203	-3.652687	-1.217562
La	11.095976	-6.087811	-1.217562
La	6.164431	-3.652687	-3.652687
O	8.657272	-6.061673	-1.191424
O	3.725727	-3.678825	-3.678825
O	6.137362	-6.061673	-3.678825
O	6.191499	-3.626549	-1.243700
O	11.068907	-3.678825	-1.191424
O	6.191499	-1.243700	-3.626549
O	8.603135	-1.243700	-1.243700
O	8.603135	-3.626549	-3.626549
Cu	9.863089	0.000000	0.000000
Cu	12.328862	-2.435124	-2.435124
La	8.630203	-1.217562	-3.652687
La	13.561748	1.217562	-1.217562
La	16.027520	-1.217562	-1.217562
La	11.095976	1.217562	-3.652687
O	13.588816	-1.191424	-1.191424
O	8.657272	1.191424	-3.678825
O	11.068907	-1.191424	-3.678825
O	11.123044	1.243700	-1.243700
O	16.000452	1.191424	-1.191424
O	11.123044	3.626549	-3.626549
O	13.534679	3.626549	-1.243700
O	13.534679	1.243700	-3.626549
Cu	0.000000	-4.870249	-4.870249
Cu	2.465772	-7.305373	-7.305373
La	-1.232886	-6.087811	-8.522935
La	3.698659	-3.652687	-6.087811
La	6.164431	-6.087811	-6.087811
La	1.232886	-3.652687	-8.522935
O	3.725727	-6.061673	-6.061673
O	-1.205818	-3.678825	-8.549073
O	1.205818	-6.061673	-8.549073
O	1.259955	-3.626549	-6.113949
O	6.137362	-3.678825	-6.061673
O	1.259955	-1.243700	-8.496797
O	3.671590	-1.243700	-6.113949
O	3.671590	-3.626549	-8.496797
Cu	4.931545	0.000000	-4.870249
Cu	7.397317	-2.435124	-7.305373
La	3.698659	-1.217562	-8.522935
La	8.630203	1.217562	-6.087811
La	11.095976	-1.217562	-6.087811
La	6.164431	1.217562	-8.522935
O	8.657272	-1.191424	-6.061673
O	3.725727	1.191424	-8.549073
O	6.137362	-1.191424	-8.549073
O	6.191499	1.243700	-6.113949
O	11.068907	1.191424	-6.061673
O	6.191499	3.626549	-8.496797
O	8.603135	3.626549	-6.113949
O	8.603135	1.243700	-8.496797
