40

O	1.965848	0.000000	0.000000
O	0.000000	1.965848	0.000000
O	0.000000	0.000000	1.985122
Pb	1.965848	1.965848	1.985122
Ti	0.000000	0.000000	0.000000
O	1.965848	0.000000	3.970244
O	0.000000	1.965848	3.970244
O	0.000000	0.000000	5.955366
Pb	1.965848	1.965848	5.955366
Ti	0.000000	0.000000	3.970244
O	1.965848	3.931696	0.000000
O	0.000000	5.897545	0.000000
O	0.000000	3.931696	1.985122
Pb	1.965848	5.897545	1.985122
Ti	0.000000	3.931696	0.000000
O	1.965848	3.931696	3.970244
O	0.000000	5.897545	3.970244
O	0.000000	3.931696	5.955366
Pb	1.965848	5.897545	5.955366
Ti	0.000000	3.931696	3.970244
O	5.897545	0.000000	0.000000
O	3.931696	1.965848	0.000000
O	3.931696	0.000000	1.985122
Pb	5.897545	1.965848	1.985122
Ti	3.931696	0.000000	0.000000
O	5.897545	0.000000	3.970244
O	3.931696	1.965848	3.970244
O	3.931696	0.000000	5.955366
Pb	5.897545	1.965848	5.955366
Ti	3.931696	0.000000	3.970244
O	5.897545	3.931696	0.000000
O	3.931696	5.897545	0.000000
O	3.931696	3.931696	1.985122
Pb	5.897545	5.897545	1.985122
Ti	3.931696	3.931696	0.000000
O	5.897545	3.931696	3.970244
O	3.931696	5.897545	3.970244
O	3.931696	3.931696	5.955366
Pb	5.897545	5.897545	5.955366
Ti	3.931696	3.931696	3.970244
