40

O	0.000000	2.116368	2.116368
O	2.116368	0.000000	2.116368
O	2.116368	2.116368	0.000000
Pb	2.116368	2.116368	2.116368
Ti	0.000000	0.000000	0.000000
O	0.000000	2.116368	6.349103
O	2.116368	0.000000	6.349103
O	2.116368	2.116368	4.232735
Pb	2.116368	2.116368	6.349103
Ti	0.000000	0.000000	4.232735
O	0.000000	6.349103	2.116368
O	2.116368	4.232735	2.116368
O	2.116368	6.349103	0.000000
Pb	2.116368	6.349103	2.116368
Ti	0.000000	4.232735	0.000000
O	0.000000	6.349103	6.349103
O	2.116368	4.232735	6.349103
O	2.116368	6.349103	4.232735
Pb	2.116368	6.349103	6.349103
Ti	0.000000	4.232735	4.232735
O	4.232735	2.116368	2.116368
O	6.349103	0.000000	2.116368
O	6.349103	2.116368	0.000000
Pb	6.349103	2.116368	2.116368
Ti	4.232735	0.000000	0.000000
O	4.232735	2.116368	6.349103
O	6.349103	0.000000	6.349103
O	6.349103	2.116368	4.232735
Pb	6.349103	2.116368	6.349103
Ti	4.232735	0.000000	4.232735
O	4.232735	6.349103	2.116368
O	6.349103	4.232735	2.116368
O	6.349103	6.349103	0.000000
Pb	6.349103	6.349103	2.116368
Ti	4.232735	4.232735	0.000000
O	4.232735	6.349103	6.349103
O	6.349103	4.232735	6.349103
O	6.349103	6.349103	4.232735
Pb	6.349103	6.349103	6.349103
Ti	4.232735	4.232735	4.232735
