112

Ca	0.000000	0.000000	0.000000
Ca	2.472604	-2.471726	-2.471726
O	3.856823	-1.086591	-1.086591
O	-1.088386	1.086591	-3.856861
O	1.088386	-1.086591	-3.856861
O	1.384218	1.385135	-1.385135
O	6.033595	1.086591	-1.086591
O	1.384218	3.558317	-3.558317
O	3.560990	3.558317	-1.385135
O	3.560990	1.385135	-3.558317
Te	-1.236302	-1.235863	-3.707589
Te	3.708907	1.235863	-1.235863
Te	6.181511	-1.235863	-1.235863
Te	1.236302	1.235863	-3.707589
Ca	4.945209	4.943452	0.000000
Ca	7.417813	2.471726	-2.471726
O	8.802031	3.856861	-1.086591
O	3.856823	6.030043	-3.856861
O	6.033595	3.856861	-3.856861
O	6.329427	6.328587	-1.385135
O	10.978803	6.030043	-1.086591
O	6.329427	8.501769	-3.558317
O	8.506199	8.501769	-1.385135
O	8.506199	6.328587	-3.558317
Te	3.708907	3.707589	-3.707589
Te	8.654115	6.179315	-1.235863
Te	11.126720	3.707589	-1.235863
Te	6.181511	6.179315	-3.707589
Ca	-4.945209	0.000000	-4.943452
Ca	-2.472604	-2.471726	-7.415178
O	-1.088386	-1.086591	-6.030043
O	-6.033595	1.086591	-8.800313
O	-3.856823	-1.086591	-8.800313
O	-3.560990	1.385135	-6.328587
O	1.088386	1.086591	-6.030043
O	-3.560990	3.558317	-8.501769
O	-1.384218	3.558317	-6.328587
O	-1.384218	1.385135	-8.501769
Te	-6.181511	-1.235863	-8.651041
Te	-1.236302	1.235863	-6.179315
Te	1.236302	-1.235863	-6.179315
Te	-3.708907	1.235863	-8.651041
Ca	0.000000	4.943452	-4.943452
Ca	2.472604	2.471726	-7.415178
O	3.856823	3.856861	-6.030043
O	-1.088386	6.030043	-8.800313
O	1.088386	3.856861	-8.800313
O	1.384218	6.328587	-6.328587
O	6.033595	6.030043	-6.030043
O	1.384218	8.501769	-8.501769
O	3.560990	8.501769	-6.328587
O	3.560990	6.328587	-8.501769
Te	-1.236302	3.707589	-8.651041
Te	3.708907	6.179315	-6.179315
Te	6.181511	3.707589	-6.179315
Te	1.236302	6.179315	-8.651041
Ca	4.945209	-4.943452	0.000000
Ca	7.417813	-7.415178	-2.471726
O	8.802031	-6.030043	-1.086591
O	3.856823	-3.856861	-3.856861
O	6.033595	-6.030043	-3.856861
O	6.329427	-3.558317	-1.385135
O	10.978803	-3.856861	-1.086591
O	6.329427	-1.385135	-3.558317
O	8.506199	-1.385135	-1.385135
O	8.506199	-3.558317	-3.558317
Te	3.708907	-6.179315	-3.707589
Te	8.654115	-3.707589	-1.235863
Te	11.126720	-6.179315	-1.235863
Te	6.181511	-3.707589	-3.707589
Ca	9.890417	0.000000	0.000000
Ca	12.363022	-2.471726	-2.471726
O	13.747240	-1.086591	-1.086591
O	8.802032	1.086591	-3.856861
O	10.978803	-1.086591	-3.856861
O	11.274636	1.385135	-1.385135
O	15.924012	1.086591	-1.086591
O	11.274636	3.558317	-3.558317
O	13.451408	3.558317	-1.385135
O	13.451408	1.385135	-3.558317
Te	8.654115	-1.235863	-3.707589
Te	13.599324	1.235863	-1.235863
Te	16.071928	-1.235863	-1.235863
Te	11.126720	1.235863	-3.707589
Ca	0.000000	-4.943452	-4.943452
Ca	2.472604	-7.415178	-7.415178
O	3.856823	-6.030043	-6.030043
O	-1.088386	-3.856861	-8.800313
O	1.088386	-6.030043	-8.800313
O	1.384218	-3.558317	-6.328587
O	6.033595	-3.856861	-6.030043
O	1.384218	-1.385135	-8.501769
O	3.560990	-1.385135	-6.328587
O	3.560990	-3.558317	-8.501769
Te	-1.236302	-6.179315	-8.651041
Te	3.708907	-3.707589	-6.179315
Te	6.181511	-6.179315	-6.179315
Te	1.236302	-3.707589	-8.651041
Ca	4.945209	0.000000	-4.943452
Ca	7.417813	-2.471726	-7.415178
O	8.802031	-1.086591	-6.030043
O	3.856823	1.086591	-8.800313
O	6.033595	-1.086591	-8.800313
O	6.329427	1.385135	-6.328587
O	10.978803	1.086591	-6.030043
O	6.329427	3.558317	-8.501769
O	8.506199	3.558317	-6.328587
O	8.506199	1.385135	-8.501769
Te	3.708907	-1.235863	-8.651041
Te	8.654115	1.235863	-6.179315
Te	11.126720	-1.235863	-6.179315
Te	6.181511	1.235863	-8.651041
