112

Cr	0.000000	0.000000	0.000000
Cr	2.161110	-2.161535	-2.161535
Mo	-1.080555	-1.080767	-3.242302
Mo	3.241664	1.080767	-1.080767
Mo	5.402774	-1.080767	-1.080767
Mo	1.080555	1.080767	-3.242302
O	3.286350	-1.036006	-1.036006
O	-1.035869	1.036006	-3.287064
O	1.035869	-1.036006	-3.287064
O	1.125240	1.125529	-1.125529
O	5.358088	1.036006	-1.036006
O	1.125241	3.197541	-3.197541
O	3.196978	3.197541	-1.125529
O	3.196979	1.125529	-3.197541
Cr	4.322219	4.323070	0.000000
Cr	6.483329	2.161535	-2.161535
Mo	3.241664	3.242302	-3.242302
Mo	7.563883	5.403837	-1.080767
Mo	9.724993	3.242302	-1.080767
Mo	5.402774	5.403837	-3.242302
O	7.608569	3.287064	-1.036006
O	3.286350	5.359075	-3.287064
O	5.358088	3.287064	-3.287064
O	5.447460	5.448599	-1.125529
O	9.680307	5.359075	-1.036006
O	5.447460	7.520610	-3.197541
O	7.519198	7.520610	-1.125529
O	7.519198	5.448599	-3.197541
Cr	-4.322219	0.000000	-4.323070
Cr	-2.161110	-2.161535	-6.484604
Mo	-5.402774	-1.080767	-7.565372
Mo	-1.080555	1.080767	-5.403837
Mo	1.080555	-1.080767	-5.403837
Mo	-3.241664	1.080767	-7.565372
O	-1.035869	-1.036006	-5.359075
O	-5.358088	1.036006	-7.610133
O	-3.286350	-1.036006	-7.610133
O	-3.196979	1.125529	-5.448599
O	1.035869	1.036006	-5.359075
O	-3.196978	3.197541	-7.520610
O	-1.125241	3.197541	-5.448599
O	-1.125240	1.125529	-7.520610
Cr	0.000000	4.323070	-4.323070
Cr	2.161110	2.161535	-6.484604
Mo	-1.080555	3.242302	-7.565372
Mo	3.241664	5.403837	-5.403837
Mo	5.402774	3.242302	-5.403837
Mo	1.080555	5.403837	-7.565372
O	3.286350	3.287064	-5.359075
O	-1.035869	5.359075	-7.610133
O	1.035869	3.287064	-7.610133
O	1.125240	5.448599	-5.448599
O	5.358088	5.359075	-5.359075
O	1.125241	7.520610	-7.520610
O	3.196978	7.520610	-5.448599
O	3.196979	5.448599	-7.520610
Cr	4.322219	-4.323070	0.000000
Cr	6.483329	-6.484604	-2.161535
Mo	3.241664	-5.403837	-3.242302
Mo	7.563883	-3.242302	-1.080767
Mo	9.724993	-5.403837	-1.080767
Mo	5.402774	-3.242302	-3.242302
O	7.608569	-5.359075	-1.036006
O	3.286350	-3.287064	-3.287064
O	5.358088	-5.359075	-3.287064
O	5.447460	-3.197541	-1.125529
O	9.680307	-3.287064	-1.036006
O	5.447460	-1.125529	-3.197541
O	7.519198	-1.125529	-1.125529
O	7.519198	-3.197541	-3.197541
Cr	8.644438	0.000000	0.000000
Cr	10.805548	-2.161535	-2.161535
Mo	7.563883	-1.080767	-3.242302
Mo	11.886102	1.080767	-1.080767
Mo	14.047212	-1.080767	-1.080767
Mo	9.724993	1.080767	-3.242302
O	11.930788	-1.036006	-1.036006
O	7.608569	1.036006	-3.287064
O	9.680307	-1.036006	-3.287064
O	9.769679	1.125529	-1.125529
O	14.002526	1.036006	-1.036006
O	9.769679	3.197541	-3.197541
O	11.841417	3.197541	-1.125529
O	11.841417	1.125529	-3.197541
Cr	0.000000	-4.323070	-4.323070
Cr	2.161110	-6.484604	-6.484604
Mo	-1.080555	-5.403837	-7.565372
Mo	3.241664	-3.242302	-5.403837
Mo	5.402774	-5.403837	-5.403837
Mo	1.080555	-3.242302	-7.565372
O	3.286350	-5.359075	-5.359075
O	-1.035869	-3.287064	-7.610133
O	1.035869	-5.359075	-7.610133
O	1.125240	-3.197541	-5.448599
O	5.358088	-3.287064	-5.359075
O	1.125241	-1.125529	-7.520610
O	3.196978	-1.125529	-5.448599
O	3.196979	-3.197541	-7.520610
Cr	4.322219	0.000000	-4.323070
Cr	6.483329	-2.161535	-6.484604
Mo	3.241664	-1.080767	-7.565372
Mo	7.563883	1.080767	-5.403837
Mo	9.724993	-1.080767	-5.403837
Mo	5.402774	1.080767	-7.565372
O	7.608569	-1.036006	-5.359075
O	3.286350	1.036006	-7.610133
O	5.358088	-1.036006	-7.610133
O	5.447460	1.125529	-5.448599
O	9.680307	1.036006	-5.359075
O	5.447460	3.197541	-7.520610
O	7.519198	3.197541	-5.448599
O	7.519198	1.125529	-7.520610
