112

Eu	0.000000	0.000000	0.000000
Eu	2.803056	-2.805887	-2.805887
O	4.129530	-1.476835	-1.476835
O	-1.476581	1.476835	-4.134940
O	1.476581	-1.476835	-4.134940
O	1.326475	1.329053	-1.329053
O	7.082692	1.476835	-1.476835
O	1.326475	4.282722	-4.282722
O	4.279636	4.282722	-1.329053
O	4.279636	1.329053	-4.282722
Rb	-1.401528	-1.402944	-4.208831
Rb	4.204583	1.402944	-1.402944
Rb	7.007639	-1.402944	-1.402944
Rb	1.401528	1.402944	-4.208831
Eu	5.606111	5.611774	0.000000
Eu	8.409167	2.805887	-2.805887
O	9.735641	4.134940	-1.476835
O	4.129530	7.088609	-4.134940
O	7.082692	4.134940	-4.134940
O	6.932586	6.940827	-1.329053
O	12.688803	7.088609	-1.476835
O	6.932586	9.894496	-4.282722
O	9.885747	9.894496	-1.329053
O	9.885747	6.940827	-4.282722
Rb	4.204583	4.208831	-4.208831
Rb	9.810694	7.014718	-1.402944
Rb	12.613750	4.208831	-1.402944
Rb	7.007639	7.014718	-4.208831
Eu	-5.606111	0.000000	-5.611774
Eu	-2.803056	-2.805887	-8.417662
O	-1.476581	-1.476835	-7.088609
O	-7.082692	1.476835	-9.746714
O	-4.129530	-1.476835	-9.746714
O	-4.279636	1.329053	-6.940827
O	1.476581	1.476835	-7.088609
O	-4.279636	4.282722	-9.894496
O	-1.326475	4.282722	-6.940827
O	-1.326475	1.329053	-9.894496
Rb	-7.007639	-1.402944	-9.820605
Rb	-1.401528	1.402944	-7.014718
Rb	1.401528	-1.402944	-7.014718
Rb	-4.204583	1.402944	-9.820605
Eu	0.000000	5.611774	-5.611774
Eu	2.803056	2.805887	-8.417662
O	4.129530	4.134940	-7.088609
O	-1.476581	7.088609	-9.746714
O	1.476581	4.134940	-9.746714
O	1.326475	6.940827	-6.940827
O	7.082692	7.088609	-7.088609
O	1.326475	9.894496	-9.894496
O	4.279636	9.894496	-6.940827
O	4.279636	6.940827	-9.894496
Rb	-1.401528	4.208831	-9.820605
Rb	4.204583	7.014718	-7.014718
Rb	7.007639	4.208831	-7.014718
Rb	1.401528	7.014718	-9.820605
Eu	5.606111	-5.611774	0.000000
Eu	8.409167	-8.417662	-2.805887
O	9.735641	-7.088609	-1.476835
O	4.129530	-4.134940	-4.134940
O	7.082692	-7.088609	-4.134940
O	6.932586	-4.282722	-1.329053
O	12.688803	-4.134940	-1.476835
O	6.932586	-1.329053	-4.282722
O	9.885747	-1.329053	-1.329053
O	9.885747	-4.282722	-4.282722
Rb	4.204583	-7.014718	-4.208831
Rb	9.810694	-4.208831	-1.402944
Rb	12.613750	-7.014718	-1.402944
Rb	7.007639	-4.208831	-4.208831
Eu	11.212222	0.000000	0.000000
Eu	14.015278	-2.805887	-2.805887
O	15.341752	-1.476835	-1.476835
O	9.735641	1.476835	-4.134940
O	12.688803	-1.476835	-4.134940
O	12.538697	1.329053	-1.329053
O	18.294914	1.476835	-1.476835
O	12.538697	4.282722	-4.282722
O	15.491858	4.282722	-1.329053
O	15.491858	1.329053	-4.282722
Rb	9.810694	-1.402944	-4.208831
Rb	15.416805	1.402944	-1.402944
Rb	18.219861	-1.402944	-1.402944
Rb	12.613750	1.402944	-4.208831
Eu	0.000000	-5.611774	-5.611774
Eu	2.803056	-8.417662	-8.417662
O	4.129530	-7.088609	-7.088609
O	-1.476581	-4.134940	-9.746714
O	1.476581	-7.088609	-9.746714
O	1.326475	-4.282722	-6.940827
O	7.082692	-4.134940	-7.088609
O	1.326475	-1.329053	-9.894496
O	4.279636	-1.329053	-6.940827
O	4.279636	-4.282722	-9.894496
Rb	-1.401528	-7.014718	-9.820605
Rb	4.204583	-4.208831	-7.014718
Rb	7.007639	-7.014718	-7.014718
Rb	1.401528	-4.208831	-9.820605
Eu	5.606111	0.000000	-5.611774
Eu	8.409167	-2.805887	-8.417662
O	9.735641	-1.476835	-7.088609
O	4.129530	1.476835	-9.746714
O	7.082692	-1.476835	-9.746714
O	6.932586	1.329053	-6.940827
O	12.688803	1.476835	-7.088609
O	6.932586	4.282722	-9.894496
O	9.885747	4.282722	-6.940827
O	9.885747	1.329053	-9.894496
Rb	4.204583	-1.402944	-9.820605
Rb	9.810694	1.402944	-7.014718
Rb	12.613750	-1.402944	-7.014718
Rb	7.007639	1.402944	-9.820605
