112

Eu	0.000000	0.000000	0.000000
Eu	2.732057	-2.740374	-2.740374
O	1.305645	1.312802	-1.312802
O	-1.426402	1.427562	-4.053176
O	4.037701	-1.427562	-1.427562
O	1.426402	-1.427562	-4.053176
O	1.305645	4.167936	-4.167936
O	4.158459	4.167936	-1.312802
O	4.158459	1.312802	-4.167936
O	6.890506	1.427562	-1.427562
Rb	-1.366028	-1.370182	-4.110556
Rb	4.098075	1.370182	-1.370182
Rb	1.366028	1.370182	-4.110556
Rb	6.830132	-1.370182	-1.370182
Eu	5.464105	5.480743	0.000000
Eu	8.196161	2.740369	-2.740374
O	6.769749	6.793545	-1.312802
O	4.037703	6.908305	-4.053176
O	9.501806	4.053181	-1.427562
O	6.890507	4.053181	-4.053176
O	6.769749	9.648679	-4.167936
O	9.622563	9.648679	-1.312802
O	9.622563	6.793545	-4.167936
O	12.354610	6.908305	-1.427562
Rb	4.098076	4.110561	-4.110556
Rb	9.562180	6.850925	-1.370182
Rb	6.830133	6.850925	-4.110556
Rb	12.294236	4.110561	-1.370182
Eu	-5.464105	0.000000	-5.480743
Eu	-2.732048	-2.740374	-8.221117
O	-4.158460	1.312802	-6.793545
O	-6.890507	1.427562	-9.533919
O	-1.426403	-1.427562	-6.908305
O	-4.037702	-1.427562	-9.533919
O	-4.158460	4.167936	-9.648679
O	-1.305646	4.167936	-6.793545
O	-1.305646	1.312802	-9.648679
O	1.426401	1.427562	-6.908305
Rb	-6.830133	-1.370182	-9.591299
Rb	-1.366029	1.370182	-6.850925
Rb	-4.098076	1.370182	-9.591299
Rb	1.366027	-1.370182	-6.850925
Eu	0.000000	5.480743	-5.480743
Eu	2.732057	2.740369	-8.221117
O	1.305645	6.793545	-6.793545
O	-1.426402	6.908305	-9.533919
O	4.037701	4.053181	-6.908305
O	1.426402	4.053181	-9.533919
O	1.305645	9.648679	-9.648679
O	4.158459	9.648679	-6.793545
O	4.158459	6.793545	-9.648679
O	6.890506	6.908305	-6.908305
Rb	-1.366028	4.110561	-9.591299
Rb	4.098075	6.850925	-6.850925
Rb	1.366028	6.850925	-9.591299
Rb	6.830132	4.110561	-6.850925
Eu	5.464105	-5.480743	0.000000
Eu	8.196161	-8.221117	-2.740374
O	6.769749	-4.167941	-1.312802
O	4.037703	-4.053181	-4.053176
O	9.501806	-6.908305	-1.427562
O	6.890507	-6.908305	-4.053176
O	6.769749	-1.312806	-4.167936
O	9.622563	-1.312806	-1.312802
O	9.622563	-4.167941	-4.167936
O	12.354610	-4.053181	-1.427562
Rb	4.098076	-6.850925	-4.110556
Rb	9.562180	-4.110561	-1.370182
Rb	6.830133	-4.110561	-4.110556
Rb	12.294236	-6.850925	-1.370182
Eu	10.928209	0.000000	0.000000
Eu	13.660266	-2.740374	-2.740374
O	12.233854	1.312802	-1.312802
O	9.501807	1.427562	-4.053176
O	14.965911	-1.427562	-1.427562
O	12.354611	-1.427562	-4.053176
O	12.233854	4.167936	-4.167936
O	15.086668	4.167936	-1.312802
O	15.086668	1.312802	-4.167936
O	17.818715	1.427562	-1.427562
Rb	9.562181	-1.370182	-4.110556
Rb	15.026284	1.370182	-1.370182
Rb	12.294237	1.370182	-4.110556
Rb	17.758341	-1.370182	-1.370182
Eu	0.000000	-5.480743	-5.480743
Eu	2.732057	-8.221117	-8.221117
O	1.305645	-4.167941	-6.793545
O	-1.426402	-4.053181	-9.533919
O	4.037701	-6.908305	-6.908305
O	1.426402	-6.908305	-9.533919
O	1.305645	-1.312806	-9.648679
O	4.158459	-1.312806	-6.793545
O	4.158459	-4.167941	-9.648679
O	6.890506	-4.053181	-6.908305
Rb	-1.366028	-6.850925	-9.591299
Rb	4.098075	-4.110561	-6.850925
Rb	1.366028	-4.110561	-9.591299
Rb	6.830132	-6.850925	-6.850925
Eu	5.464105	0.000000	-5.480743
Eu	8.196161	-2.740374	-8.221117
O	6.769749	1.312802	-6.793545
O	4.037703	1.427562	-9.533919
O	9.501806	-1.427562	-6.908305
O	6.890507	-1.427562	-9.533919
O	6.769749	4.167936	-9.648679
O	9.622563	4.167936	-6.793545
O	9.622563	1.312802	-9.648679
O	12.354610	1.427562	-6.908305
Rb	4.098076	-1.370182	-9.591299
Rb	9.562180	1.370182	-6.850925
Rb	6.830133	1.370182	-9.591299
Rb	12.294236	-1.370182	-6.850925
