40

Ir	1.997599	1.997599	1.997599
O	0.000000	1.997599	1.997599
O	1.997599	0.000000	1.997599
O	1.997599	1.997599	0.000000
Tl	0.000000	0.000000	0.000000
Ir	1.997599	1.997599	5.992797
O	0.000000	1.997599	5.992797
O	1.997599	0.000000	5.992797
O	1.997599	1.997599	3.995198
Tl	0.000000	0.000000	3.995198
Ir	1.997599	5.992797	1.997599
O	0.000000	5.992797	1.997599
O	1.997599	3.995198	1.997599
O	1.997599	5.992797	0.000000
Tl	0.000000	3.995198	0.000000
Ir	1.997599	5.992797	5.992797
O	0.000000	5.992797	5.992797
O	1.997599	3.995198	5.992797
O	1.997599	5.992797	3.995198
Tl	0.000000	3.995198	3.995198
Ir	5.992797	1.997599	1.997599
O	3.995198	1.997599	1.997599
O	5.992797	0.000000	1.997599
O	5.992797	1.997599	0.000000
Tl	3.995198	0.000000	0.000000
Ir	5.992797	1.997599	5.992797
O	3.995198	1.997599	5.992797
O	5.992797	0.000000	5.992797
O	5.992797	1.997599	3.995198
Tl	3.995198	0.000000	3.995198
Ir	5.992797	5.992797	1.997599
O	3.995198	5.992797	1.997599
O	5.992797	3.995198	1.997599
O	5.992797	5.992797	0.000000
Tl	3.995198	3.995198	0.000000
Ir	5.992797	5.992797	5.992797
O	3.995198	5.992797	5.992797
O	5.992797	3.995198	5.992797
O	5.992797	5.992797	3.995198
Tl	3.995198	3.995198	3.995198
