112

O	3.682031	-1.082274	-1.082274
O	-1.082467	1.082274	-3.684012
O	1.082467	-1.082274	-3.684012
O	1.299782	1.300869	-1.300869
O	5.846965	1.082274	-1.082274
O	1.299782	3.465417	-3.465417
O	3.464716	3.465417	-1.300869
O	3.464716	1.300869	-3.465417
Pt	0.000000	0.000000	0.000000
Pt	2.382249	-2.383143	-2.383143
Y	-1.191125	-1.191571	-3.574714
Y	3.573374	1.191571	-1.191571
Y	5.955623	-1.191571	-1.191571
Y	1.191125	1.191571	-3.574714
O	8.446529	3.684012	-1.082274
O	3.682031	5.848560	-3.684012
O	5.846965	3.684012	-3.684012
O	6.064280	6.067154	-1.300869
O	10.611463	5.848560	-1.082274
O	6.064280	8.231703	-3.465417
O	8.229214	8.231703	-1.300869
O	8.229214	6.067154	-3.465417
Pt	4.764498	4.766286	0.000000
Pt	7.146747	2.383143	-2.383143
Y	3.573374	3.574714	-3.574714
Y	8.337872	5.957857	-1.191571
Y	10.720121	3.574714	-1.191571
Y	5.955623	5.957857	-3.574714
O	-1.082467	-1.082274	-5.848560
O	-5.846965	1.082274	-8.450297
O	-3.682031	-1.082274	-8.450297
O	-3.464716	1.300869	-6.067154
O	1.082467	1.082274	-5.848560
O	-3.464716	3.465417	-8.231703
O	-1.299782	3.465417	-6.067154
O	-1.299782	1.300869	-8.231703
Pt	-4.764498	0.000000	-4.766286
Pt	-2.382249	-2.383143	-7.149429
Y	-5.955623	-1.191571	-8.341000
Y	-1.191125	1.191571	-5.957857
Y	1.191125	-1.191571	-5.957857
Y	-3.573374	1.191571	-8.341000
O	3.682031	3.684012	-5.848560
O	-1.082467	5.848560	-8.450297
O	1.082467	3.684012	-8.450297
O	1.299782	6.067154	-6.067154
O	5.846965	5.848560	-5.848560
O	1.299782	8.231703	-8.231703
O	3.464716	8.231703	-6.067154
O	3.464716	6.067154	-8.231703
Pt	0.000000	4.766286	-4.766286
Pt	2.382249	2.383143	-7.149429
Y	-1.191125	3.574714	-8.341000
Y	3.573374	5.957857	-5.957857
Y	5.955623	3.574714	-5.957857
Y	1.191125	5.957857	-8.341000
O	8.446529	-5.848560	-1.082274
O	3.682031	-3.684012	-3.684012
O	5.846965	-5.848560	-3.684012
O	6.064280	-3.465417	-1.300869
O	10.611463	-3.684012	-1.082274
O	6.064280	-1.300869	-3.465417
O	8.229214	-1.300869	-1.300869
O	8.229214	-3.465417	-3.465417
Pt	4.764498	-4.766286	0.000000
Pt	7.146747	-7.149429	-2.383143
Y	3.573374	-5.957857	-3.574714
Y	8.337872	-3.574714	-1.191571
Y	10.720121	-5.957857	-1.191571
Y	5.955623	-3.574714	-3.574714
O	13.211027	-1.082274	-1.082274
O	8.446529	1.082274	-3.684012
O	10.611463	-1.082274	-3.684012
O	10.828778	1.300869	-1.300869
O	15.375961	1.082274	-1.082274
O	10.828778	3.465417	-3.465417
O	12.993712	3.465417	-1.300869
O	12.993712	1.300869	-3.465417
Pt	9.528996	0.000000	0.000000
Pt	11.911245	-2.383143	-2.383143
Y	8.337872	-1.191571	-3.574714
Y	13.102370	1.191571	-1.191571
Y	15.484619	-1.191571	-1.191571
Y	10.720121	1.191571	-3.574714
O	3.682031	-5.848560	-5.848560
O	-1.082467	-3.684012	-8.450297
O	1.082467	-5.848560	-8.450297
O	1.299782	-3.465417	-6.067154
O	5.846965	-3.684012	-5.848560
O	1.299782	-1.300869	-8.231703
O	3.464716	-1.300869	-6.067154
O	3.464716	-3.465417	-8.231703
Pt	0.000000	-4.766286	-4.766286
Pt	2.382249	-7.149429	-7.149429
Y	-1.191125	-5.957857	-8.341000
Y	3.573374	-3.574714	-5.957857
Y	5.955623	-5.957857	-5.957857
Y	1.191125	-3.574714	-8.341000
O	8.446529	-1.082274	-5.848560
O	3.682031	1.082274	-8.450297
O	5.846965	-1.082274	-8.450297
O	6.064280	1.300869	-6.067154
O	10.611463	1.082274	-5.848560
O	6.064280	3.465417	-8.231703
O	8.229214	3.465417	-6.067154
O	8.229214	1.300869	-8.231703
Pt	4.764498	0.000000	-4.766286
Pt	7.146747	-2.383143	-7.149429
Y	3.573374	-1.191571	-8.341000
Y	8.337872	1.191571	-5.957857
Y	10.720121	-1.191571	-5.957857
Y	5.955623	1.191571	-8.341000
