40

Li	1.724546	1.724546	1.724546
O	0.000000	1.724546	1.724546
O	1.724546	0.000000	1.724546
O	1.724546	1.724546	0.000000
Ta	0.000000	0.000000	0.000000
Li	1.724546	1.724546	5.173637
O	0.000000	1.724546	5.173637
O	1.724546	0.000000	5.173637
O	1.724546	1.724546	3.449091
Ta	0.000000	0.000000	3.449091
Li	1.724546	5.173637	1.724546
O	0.000000	5.173637	1.724546
O	1.724546	3.449091	1.724546
O	1.724546	5.173637	0.000000
Ta	0.000000	3.449091	0.000000
Li	1.724546	5.173637	5.173637
O	0.000000	5.173637	5.173637
O	1.724546	3.449091	5.173637
O	1.724546	5.173637	3.449091
Ta	0.000000	3.449091	3.449091
Li	5.173637	1.724546	1.724546
O	3.449091	1.724546	1.724546
O	5.173637	0.000000	1.724546
O	5.173637	1.724546	0.000000
Ta	3.449091	0.000000	0.000000
Li	5.173637	1.724546	5.173637
O	3.449091	1.724546	5.173637
O	5.173637	0.000000	5.173637
O	5.173637	1.724546	3.449091
Ta	3.449091	0.000000	3.449091
Li	5.173637	5.173637	1.724546
O	3.449091	5.173637	1.724546
O	5.173637	3.449091	1.724546
O	5.173637	5.173637	0.000000
Ta	3.449091	3.449091	0.000000
Li	5.173637	5.173637	5.173637
O	3.449091	5.173637	5.173637
O	5.173637	3.449091	5.173637
O	5.173637	5.173637	3.449091
Ta	3.449091	3.449091	3.449091
