40

Co	0.000000	0.000000	0.000000
O	1.960535	1.960535	0.000000
O	1.960535	0.000000	1.960535
O	0.000000	1.960535	1.960535
W	1.960535	1.960535	1.960535
Co	0.000000	0.000000	3.921070
O	1.960535	1.960535	3.921070
O	1.960535	0.000000	5.881604
O	0.000000	1.960535	5.881604
W	1.960535	1.960535	5.881604
Co	0.000000	3.921070	0.000000
O	1.960535	5.881604	0.000000
O	1.960535	3.921070	1.960535
O	0.000000	5.881604	1.960535
W	1.960535	5.881604	1.960535
Co	0.000000	3.921070	3.921070
O	1.960535	5.881604	3.921070
O	1.960535	3.921070	5.881604
O	0.000000	5.881604	5.881604
W	1.960535	5.881604	5.881604
Co	3.921070	0.000000	0.000000
O	5.881604	1.960535	0.000000
O	5.881604	0.000000	1.960535
O	3.921070	1.960535	1.960535
W	5.881604	1.960535	1.960535
Co	3.921070	0.000000	3.921070
O	5.881604	1.960535	3.921070
O	5.881604	0.000000	5.881604
O	3.921070	1.960535	5.881604
W	5.881604	1.960535	5.881604
Co	3.921070	3.921070	0.000000
O	5.881604	5.881604	0.000000
O	5.881604	3.921070	1.960535
O	3.921070	5.881604	1.960535
W	5.881604	5.881604	1.960535
Co	3.921070	3.921070	3.921070
O	5.881604	5.881604	3.921070
O	5.881604	3.921070	5.881604
O	3.921070	5.881604	5.881604
W	5.881604	5.881604	5.881604
