112

In	0.000000	0.000000	0.000000
In	2.492669	-2.493353	-2.493353
O	3.718395	-1.266657	-1.266657
O	-1.266943	1.266657	-3.720049
O	1.266943	-1.266657	-3.720049
O	1.225726	1.226696	-1.226696
O	6.252280	1.266657	-1.266657
O	1.225726	3.760009	-3.760009
O	3.759611	3.760009	-1.226696
O	3.759611	1.226696	-3.760009
Sr	-1.246334	-1.246676	-3.740029
Sr	3.739003	1.246676	-1.246676
Sr	6.231672	-1.246676	-1.246676
Sr	1.246334	1.246676	-3.740029
In	4.985337	4.986705	0.000000
In	7.478006	2.493353	-2.493353
O	8.703732	3.720049	-1.266657
O	3.718395	6.253362	-3.720049
O	6.252280	3.720049	-3.720049
O	6.211063	6.213401	-1.226696
O	11.237617	6.253362	-1.266657
O	6.211063	8.746715	-3.760009
O	8.744949	8.746715	-1.226696
O	8.744949	6.213401	-3.760009
Sr	3.739003	3.740029	-3.740029
Sr	8.724340	6.233382	-1.246676
Sr	11.217009	3.740029	-1.246676
Sr	6.231672	6.233382	-3.740029
In	-4.985337	0.000000	-4.986705
In	-2.492669	-2.493353	-7.480058
O	-1.266943	-1.266657	-6.253362
O	-6.252280	1.266657	-8.706754
O	-3.718395	-1.266657	-8.706754
O	-3.759611	1.226696	-6.213401
O	1.266943	1.266657	-6.253362
O	-3.759611	3.760009	-8.746715
O	-1.225726	3.760009	-6.213401
O	-1.225726	1.226696	-8.746715
Sr	-6.231672	-1.246676	-8.726735
Sr	-1.246334	1.246676	-6.233382
Sr	1.246334	-1.246676	-6.233382
Sr	-3.739003	1.246676	-8.726735
In	0.000000	4.986705	-4.986705
In	2.492669	2.493353	-7.480058
O	3.718395	3.720049	-6.253362
O	-1.266943	6.253362	-8.706754
O	1.266943	3.720049	-8.706754
O	1.225726	6.213401	-6.213401
O	6.252280	6.253362	-6.253362
O	1.225726	8.746715	-8.746715
O	3.759611	8.746715	-6.213401
O	3.759611	6.213401	-8.746715
Sr	-1.246334	3.740029	-8.726735
Sr	3.739003	6.233382	-6.233382
Sr	6.231672	3.740029	-6.233382
Sr	1.246334	6.233382	-8.726735
In	4.985337	-4.986705	0.000000
In	7.478006	-7.480058	-2.493353
O	8.703732	-6.253362	-1.266657
O	3.718395	-3.720049	-3.720049
O	6.252280	-6.253362	-3.720049
O	6.211063	-3.760009	-1.226696
O	11.237617	-3.720049	-1.266657
O	6.211063	-1.226696	-3.760009
O	8.744949	-1.226696	-1.226696
O	8.744949	-3.760009	-3.760009
Sr	3.739003	-6.233382	-3.740029
Sr	8.724340	-3.740029	-1.246676
Sr	11.217009	-6.233382	-1.246676
Sr	6.231672	-3.740029	-3.740029
In	9.970675	0.000000	0.000000
In	12.463343	-2.493353	-2.493353
O	13.689069	-1.266657	-1.266657
O	8.703732	1.266657	-3.720049
O	11.237617	-1.266657	-3.720049
O	11.196401	1.226696	-1.226696
O	16.222954	1.266657	-1.266657
O	11.196401	3.760009	-3.760009
O	13.730286	3.760009	-1.226696
O	13.730286	1.226696	-3.760009
Sr	8.724340	-1.246676	-3.740029
Sr	13.709678	1.246676	-1.246676
Sr	16.202346	-1.246676	-1.246676
Sr	11.217009	1.246676	-3.740029
In	0.000000	-4.986705	-4.986705
In	2.492669	-7.480058	-7.480058
O	3.718395	-6.253362	-6.253362
O	-1.266943	-3.720049	-8.706754
O	1.266943	-6.253362	-8.706754
O	1.225726	-3.760009	-6.213401
O	6.252280	-3.720049	-6.253362
O	1.225726	-1.226696	-8.746715
O	3.759611	-1.226696	-6.213401
O	3.759611	-3.760009	-8.746715
Sr	-1.246334	-6.233382	-8.726735
Sr	3.739003	-3.740029	-6.233382
Sr	6.231672	-6.233382	-6.233382
Sr	1.246334	-3.740029	-8.726735
In	4.985337	0.000000	-4.986705
In	7.478006	-2.493353	-7.480058
O	8.703732	-1.266657	-6.253362
O	3.718395	1.266657	-8.706754
O	6.252280	-1.266657	-8.706754
O	6.211063	1.226696	-6.213401
O	11.237617	1.266657	-6.253362
O	6.211063	3.760009	-8.746715
O	8.744949	3.760009	-6.213401
O	8.744949	1.226696	-8.746715
Sr	3.739003	-1.246676	-8.726735
Sr	8.724340	1.246676	-6.233382
Sr	11.217009	-1.246676	-6.233382
Sr	6.231672	1.246676	-8.726735
