40

Mn	0.000000	0.000000	0.000000
N	1.779291	1.779291	1.779291
O	0.000000	1.779291	1.779291
O	1.779291	0.000000	1.779291
O	1.779291	1.779291	0.000000
Mn	0.000000	0.000000	3.558581
N	1.779291	1.779291	5.337872
O	0.000000	1.779291	5.337872
O	1.779291	0.000000	5.337872
O	1.779291	1.779291	3.558581
Mn	0.000000	3.558581	0.000000
N	1.779291	5.337872	1.779291
O	0.000000	5.337872	1.779291
O	1.779291	3.558581	1.779291
O	1.779291	5.337872	0.000000
Mn	0.000000	3.558581	3.558581
N	1.779291	5.337872	5.337872
O	0.000000	5.337872	5.337872
O	1.779291	3.558581	5.337872
O	1.779291	5.337872	3.558581
Mn	3.558581	0.000000	0.000000
N	5.337872	1.779291	1.779291
O	3.558581	1.779291	1.779291
O	5.337872	0.000000	1.779291
O	5.337872	1.779291	0.000000
Mn	3.558581	0.000000	3.558581
N	5.337872	1.779291	5.337872
O	3.558581	1.779291	5.337872
O	5.337872	0.000000	5.337872
O	5.337872	1.779291	3.558581
Mn	3.558581	3.558581	0.000000
N	5.337872	5.337872	1.779291
O	3.558581	5.337872	1.779291
O	5.337872	3.558581	1.779291
O	5.337872	5.337872	0.000000
Mn	3.558581	3.558581	3.558581
N	5.337872	5.337872	5.337872
O	3.558581	5.337872	5.337872
O	5.337872	3.558581	5.337872
O	5.337872	5.337872	3.558581
