112

K	0.000000	0.000000	0.000000
K	2.296265	-2.297104	-2.297104
O	-0.889936	0.889580	-3.704627
O	3.702595	-0.889580	-0.889580
O	0.889936	-0.889580	-3.704627
O	1.406330	1.407523	-1.407523
O	5.482467	0.889580	-0.889580
O	1.406330	3.186684	-3.186684
O	3.186201	3.186684	-1.407523
O	3.186201	1.407523	-3.186684
Os	-1.148133	-1.148552	-3.445656
Os	1.148133	1.148552	-3.445656
Os	3.444398	1.148552	-1.148552
Os	5.740664	-1.148552	-1.148552
K	4.592531	4.594209	0.000000
K	6.888796	2.297105	-2.297104
O	3.702595	5.483789	-3.704627
O	8.295126	3.704628	-0.889580
O	5.482467	3.704628	-3.704627
O	5.998860	6.001732	-1.407523
O	10.074998	5.483789	-0.889580
O	5.998860	7.780893	-3.186684
O	7.778732	7.780893	-1.407523
O	7.778732	6.001732	-3.186684
Os	3.444398	3.445657	-3.445656
Os	5.740663	5.742761	-3.445656
Os	8.036929	5.742761	-1.148552
Os	10.333194	3.445657	-1.148552
K	-4.592531	0.000000	-4.594209
K	-2.296265	-2.297104	-6.891313
O	-5.482467	0.889580	-8.298836
O	-0.889936	-0.889580	-5.483789
O	-3.702595	-0.889580	-8.298836
O	-3.186201	1.407523	-6.001732
O	0.889936	0.889580	-5.483789
O	-3.186201	3.186684	-7.780893
O	-1.406330	3.186684	-6.001732
O	-1.406330	1.407523	-7.780893
Os	-5.740664	-1.148552	-8.039864
Os	-3.444398	1.148552	-8.039864
Os	-1.148133	1.148552	-5.742761
Os	1.148133	-1.148552	-5.742761
K	0.000000	4.594209	-4.594209
K	2.296265	2.297105	-6.891313
O	-0.889936	5.483789	-8.298836
O	3.702595	3.704628	-5.483789
O	0.889936	3.704628	-8.298836
O	1.406330	6.001732	-6.001732
O	5.482467	5.483789	-5.483789
O	1.406330	7.780893	-7.780893
O	3.186201	7.780893	-6.001732
O	3.186201	6.001732	-7.780893
Os	-1.148133	3.445657	-8.039864
Os	1.148133	5.742761	-8.039864
Os	3.444398	5.742761	-5.742761
Os	5.740664	3.445657	-5.742761
K	4.592531	-4.594209	0.000000
K	6.888796	-6.891313	-2.297104
O	3.702595	-3.704628	-3.704627
O	8.295126	-5.483789	-0.889580
O	5.482467	-5.483789	-3.704627
O	5.998860	-3.186685	-1.407523
O	10.074998	-3.704628	-0.889580
O	5.998860	-1.407525	-3.186684
O	7.778732	-1.407525	-1.407523
O	7.778732	-3.186685	-3.186684
Os	3.444398	-5.742761	-3.445656
Os	5.740663	-3.445657	-3.445656
Os	8.036929	-3.445657	-1.148552
Os	10.333194	-5.742761	-1.148552
K	9.185062	0.000000	0.000000
K	11.481327	-2.297104	-2.297104
O	8.295126	0.889580	-3.704627
O	12.887657	-0.889580	-0.889580
O	10.074998	-0.889580	-3.704627
O	10.591391	1.407523	-1.407523
O	14.667528	0.889580	-0.889580
O	10.591391	3.186684	-3.186684
O	12.371263	3.186684	-1.407523
O	12.371263	1.407523	-3.186684
Os	8.036929	-1.148552	-3.445656
Os	10.333194	1.148552	-3.445656
Os	12.629460	1.148552	-1.148552
Os	14.925725	-1.148552	-1.148552
K	0.000000	-4.594209	-4.594209
K	2.296265	-6.891313	-6.891313
O	-0.889936	-3.704628	-8.298836
O	3.702595	-5.483789	-5.483789
O	0.889936	-5.483789	-8.298836
O	1.406330	-3.186685	-6.001732
O	5.482467	-3.704628	-5.483789
O	1.406330	-1.407525	-7.780893
O	3.186201	-1.407525	-6.001732
O	3.186201	-3.186685	-7.780893
Os	-1.148133	-5.742761	-8.039864
Os	1.148133	-3.445657	-8.039864
Os	3.444398	-3.445657	-5.742761
Os	5.740664	-5.742761	-5.742761
K	4.592531	0.000000	-4.594209
K	6.888796	-2.297104	-6.891313
O	3.702595	0.889580	-8.298836
O	8.295126	-0.889580	-5.483789
O	5.482467	-0.889580	-8.298836
O	5.998860	1.407523	-6.001732
O	10.074998	0.889580	-5.483789
O	5.998860	3.186684	-7.780893
O	7.778732	3.186684	-6.001732
O	7.778732	1.407523	-7.780893
Os	3.444398	-1.148552	-8.039864
Os	5.740663	1.148552	-8.039864
Os	8.036929	1.148552	-5.742761
Os	10.333194	-1.148552	-5.742761
