112

Hf	0.000000	0.000000	0.000000
Hf	2.443010	-2.443226	-2.443226
O	3.584441	-1.301159	-1.301159
O	-1.301578	1.301159	-3.585293
O	1.301578	-1.301159	-3.585293
O	1.141432	1.142067	-1.142067
O	6.187598	1.301159	-1.301159
O	1.141432	3.744385	-3.744385
O	3.744588	3.744385	-1.142067
O	3.744588	1.142067	-3.744385
Sn	-1.221505	-1.221613	-3.664839
Sn	3.664515	1.221613	-1.221613
Sn	6.107524	-1.221613	-1.221613
Sn	1.221505	1.221613	-3.664839
Hf	4.886019	4.886451	0.000000
Hf	7.329029	2.443226	-2.443226
O	8.470461	3.585292	-1.301159
O	3.584441	6.187610	-3.585293
O	6.187597	3.585292	-3.585293
O	6.027451	6.028518	-1.142067
O	11.073617	6.187610	-1.301159
O	6.027451	8.630836	-3.744385
O	8.630607	8.630836	-1.142067
O	8.630607	6.028518	-3.744385
Sn	3.664515	3.664839	-3.664839
Sn	8.550534	6.108064	-1.221613
Sn	10.993544	3.664839	-1.221613
Sn	6.107524	6.108064	-3.664839
Hf	-4.886019	0.000000	-4.886451
Hf	-2.443010	-2.443226	-7.329677
O	-1.301578	-1.301159	-6.187610
O	-6.187598	1.301159	-8.471744
O	-3.584441	-1.301159	-8.471744
O	-3.744588	1.142067	-6.028518
O	1.301578	1.301159	-6.187610
O	-3.744588	3.744385	-8.630836
O	-1.141432	3.744385	-6.028518
O	-1.141432	1.142067	-8.630836
Sn	-6.107524	-1.221613	-8.551290
Sn	-1.221505	1.221613	-6.108064
Sn	1.221505	-1.221613	-6.108064
Sn	-3.664515	1.221613	-8.551290
Hf	0.000000	4.886451	-4.886451
Hf	2.443010	2.443226	-7.329677
O	3.584441	3.585292	-6.187610
O	-1.301578	6.187610	-8.471744
O	1.301578	3.585292	-8.471744
O	1.141432	6.028518	-6.028518
O	6.187598	6.187610	-6.187610
O	1.141432	8.630836	-8.630836
O	3.744588	8.630836	-6.028518
O	3.744588	6.028518	-8.630836
Sn	-1.221505	3.664839	-8.551290
Sn	3.664515	6.108064	-6.108064
Sn	6.107524	3.664839	-6.108064
Sn	1.221505	6.108064	-8.551290
Hf	4.886019	-4.886451	0.000000
Hf	7.329029	-7.329677	-2.443226
O	8.470461	-6.187610	-1.301159
O	3.584441	-3.585293	-3.585293
O	6.187597	-6.187610	-3.585293
O	6.027451	-3.744385	-1.142067
O	11.073617	-3.585293	-1.301159
O	6.027451	-1.142067	-3.744385
O	8.630607	-1.142067	-1.142067
O	8.630607	-3.744385	-3.744385
Sn	3.664515	-6.108064	-3.664839
Sn	8.550534	-3.664839	-1.221613
Sn	10.993544	-6.108064	-1.221613
Sn	6.107524	-3.664839	-3.664839
Hf	9.772039	0.000000	0.000000
Hf	12.215049	-2.443226	-2.443226
O	13.356480	-1.301159	-1.301159
O	8.470461	1.301159	-3.585293
O	11.073617	-1.301159	-3.585293
O	10.913470	1.142067	-1.142067
O	15.959636	1.301159	-1.301159
O	10.913471	3.744385	-3.744385
O	13.516627	3.744385	-1.142067
O	13.516627	1.142067	-3.744385
Sn	8.550534	-1.221613	-3.664839
Sn	13.436553	1.221613	-1.221613
Sn	15.879563	-1.221613	-1.221613
Sn	10.993544	1.221613	-3.664839
Hf	0.000000	-4.886451	-4.886451
Hf	2.443010	-7.329677	-7.329677
O	3.584441	-6.187610	-6.187610
O	-1.301578	-3.585293	-8.471744
O	1.301578	-6.187610	-8.471744
O	1.141432	-3.744385	-6.028518
O	6.187598	-3.585293	-6.187610
O	1.141432	-1.142067	-8.630836
O	3.744588	-1.142067	-6.028518
O	3.744588	-3.744385	-8.630836
Sn	-1.221505	-6.108064	-8.551290
Sn	3.664515	-3.664839	-6.108064
Sn	6.107524	-6.108064	-6.108064
Sn	1.221505	-3.664839	-8.551290
Hf	4.886019	0.000000	-4.886451
Hf	7.329029	-2.443226	-7.329677
O	8.470461	-1.301159	-6.187610
O	3.584441	1.301159	-8.471744
O	6.187597	-1.301159	-8.471744
O	6.027451	1.142067	-6.028518
O	11.073617	1.301159	-6.187610
O	6.027451	3.744385	-8.630836
O	8.630607	3.744385	-6.028518
O	8.630607	1.142067	-8.630836
Sn	3.664515	-1.221613	-8.551290
Sn	8.550534	1.221613	-6.108064
Sn	10.993544	-1.221613	-6.108064
Sn	6.107524	1.221613	-8.551290
