112

Be	0.000000	0.000000	0.000000
Be	2.165744	-2.165879	-2.165879
O	0.975965	0.976222	-0.976222
O	-1.189779	1.189657	-3.142101
O	3.141709	-1.189657	-1.189657
O	1.189779	-1.189657	-3.142101
O	0.975965	3.355535	-3.355535
O	3.355513	3.355535	-0.976222
O	3.355513	0.976222	-3.355535
O	5.521256	1.189657	-1.189657
Yb	-1.082872	-1.082944	-3.248823
Yb	5.414350	-1.082944	-1.082944
Yb	3.248606	1.082944	-1.082944
Yb	1.082872	1.082944	-3.248823
Be	4.331481	4.331760	0.000000
Be	6.497225	2.165881	-2.165879
O	5.307446	5.307982	-0.976222
O	3.141702	5.521416	-3.142101
O	7.473190	3.142103	-1.189657
O	5.521259	3.142103	-3.142101
O	5.307446	7.687295	-3.355535
O	7.686993	7.687295	-0.976222
O	7.686993	5.307982	-3.355535
O	9.852737	5.521416	-1.189657
Yb	3.248609	3.248815	-3.248823
Yb	9.745830	3.248815	-1.082944
Yb	7.580086	5.414704	-1.082944
Yb	5.414353	5.414704	-3.248823
Be	-4.331481	0.000000	-4.331760
Be	-2.165737	-2.165879	-6.497638
O	-3.355516	0.976222	-5.307982
O	-5.521259	1.189657	-7.473861
O	-1.189772	-1.189657	-5.521416
O	-3.141702	-1.189657	-7.473861
O	-3.355516	3.355535	-7.687295
O	-0.975968	3.355535	-5.307982
O	-0.975968	0.976222	-7.687295
O	1.189776	1.189657	-5.521416
Yb	-5.414353	-1.082944	-7.580583
Yb	1.082869	-1.082944	-5.414704
Yb	-1.082875	1.082944	-5.414704
Yb	-3.248609	1.082944	-7.580583
Be	0.000000	4.331760	-4.331760
Be	2.165744	2.165881	-6.497638
O	0.975965	5.307982	-5.307982
O	-1.189779	5.521416	-7.473861
O	3.141709	3.142103	-5.521416
O	1.189779	3.142103	-7.473861
O	0.975965	7.687295	-7.687295
O	3.355513	7.687295	-5.307982
O	3.355513	5.307982	-7.687295
O	5.521256	5.521416	-5.521416
Yb	-1.082872	3.248815	-7.580583
Yb	5.414350	3.248815	-5.414704
Yb	3.248606	5.414704	-5.414704
Yb	1.082872	5.414704	-7.580583
Be	4.331481	-4.331760	0.000000
Be	6.497225	-6.497638	-2.165879
O	5.307446	-3.355538	-0.976222
O	3.141702	-3.142103	-3.142101
O	7.473190	-5.521416	-1.189657
O	5.521259	-5.521416	-3.142101
O	5.307446	-0.976224	-3.355535
O	7.686993	-0.976224	-0.976222
O	7.686993	-3.355538	-3.355535
O	9.852737	-3.142103	-1.189657
Yb	3.248609	-5.414704	-3.248823
Yb	9.745830	-5.414704	-1.082944
Yb	7.580086	-3.248815	-1.082944
Yb	5.414353	-3.248815	-3.248823
Be	8.662961	0.000000	0.000000
Be	10.828705	-2.165879	-2.165879
O	9.638926	0.976222	-0.976222
O	7.473183	1.189657	-3.142101
O	11.804670	-1.189657	-1.189657
O	9.852740	-1.189657	-3.142101
O	9.638926	3.355535	-3.355535
O	12.018474	3.355535	-0.976222
O	12.018474	0.976222	-3.355535
O	14.184218	1.189657	-1.189657
Yb	7.580090	-1.082944	-3.248823
Yb	14.077311	-1.082944	-1.082944
Yb	11.911567	1.082944	-1.082944
Yb	9.745833	1.082944	-3.248823
Be	0.000000	-4.331760	-4.331760
Be	2.165744	-6.497638	-6.497638
O	0.975965	-3.355538	-5.307982
O	-1.189779	-3.142103	-7.473861
O	3.141709	-5.521416	-5.521416
O	1.189779	-5.521416	-7.473861
O	0.975965	-0.976224	-7.687295
O	3.355513	-0.976224	-5.307982
O	3.355513	-3.355538	-7.687295
O	5.521256	-3.142103	-5.521416
Yb	-1.082872	-5.414704	-7.580583
Yb	5.414350	-5.414704	-5.414704
Yb	3.248606	-3.248815	-5.414704
Yb	1.082872	-3.248815	-7.580583
Be	4.331481	0.000000	-4.331760
Be	6.497225	-2.165879	-6.497638
O	5.307446	0.976222	-5.307982
O	3.141702	1.189657	-7.473861
O	7.473190	-1.189657	-5.521416
O	5.521259	-1.189657	-7.473861
O	5.307446	3.355535	-7.687295
O	7.686993	3.355535	-5.307982
O	7.686993	0.976222	-7.687295
O	9.852737	1.189657	-5.521416
Yb	3.248609	-1.082944	-7.580583
Yb	9.745830	-1.082944	-5.414704
Yb	7.580086	1.082944	-5.414704
Yb	5.414353	1.082944	-7.580583
