112

O	3.886175	-1.386186	-1.386186
O	-1.387057	1.386186	-3.888773
O	1.387057	-1.386186	-3.888773
O	1.249559	1.251294	-1.251294
O	6.660290	1.386186	-1.386186
O	1.249559	4.023666	-4.023666
O	4.023674	4.023666	-1.251294
O	4.023674	1.251294	-4.023666
Pa	0.000000	0.000000	0.000000
Pa	2.636616	-2.637480	-2.637480
Pb	-1.318308	-1.318740	-3.956220
Pb	3.954925	1.318740	-1.318740
Pb	6.591541	-1.318740	-1.318740
Pb	1.318308	1.318740	-3.956220
O	9.159408	3.888773	-1.386186
O	3.886175	6.661146	-3.888773
O	6.660290	3.888773	-3.888773
O	6.522792	6.526253	-1.251294
O	11.933523	6.661146	-1.386186
O	6.522792	9.298625	-4.023666
O	9.296906	9.298625	-1.251294
O	9.296906	6.526253	-4.023666
Pa	5.273233	5.274959	0.000000
Pa	7.909849	2.637480	-2.637480
Pb	3.954925	3.956220	-3.956220
Pb	9.228157	6.593699	-1.318740
Pb	11.864774	3.956220	-1.318740
Pb	6.591541	6.593699	-3.956220
O	-1.387057	-1.386186	-6.661146
O	-6.660290	1.386186	-9.163733
O	-3.886175	-1.386186	-9.163733
O	-4.023674	1.251294	-6.526253
O	1.387057	1.386186	-6.661146
O	-4.023674	4.023666	-9.298625
O	-1.249559	4.023666	-6.526253
O	-1.249559	1.251294	-9.298625
Pa	-5.273233	0.000000	-5.274959
Pa	-2.636616	-2.637480	-7.912439
Pb	-6.591541	-1.318740	-9.231179
Pb	-1.318308	1.318740	-6.593699
Pb	1.318308	-1.318740	-6.593699
Pb	-3.954925	1.318740	-9.231179
O	3.886175	3.888773	-6.661146
O	-1.387057	6.661146	-9.163733
O	1.387057	3.888773	-9.163733
O	1.249559	6.526253	-6.526253
O	6.660290	6.661146	-6.661146
O	1.249559	9.298625	-9.298625
O	4.023674	9.298625	-6.526253
O	4.023674	6.526253	-9.298625
Pa	0.000000	5.274959	-5.274959
Pa	2.636616	2.637480	-7.912439
Pb	-1.318308	3.956220	-9.231179
Pb	3.954925	6.593699	-6.593699
Pb	6.591541	3.956220	-6.593699
Pb	1.318308	6.593699	-9.231179
O	9.159408	-6.661146	-1.386186
O	3.886175	-3.888773	-3.888773
O	6.660290	-6.661146	-3.888773
O	6.522792	-4.023666	-1.251294
O	11.933523	-3.888773	-1.386186
O	6.522792	-1.251294	-4.023666
O	9.296906	-1.251294	-1.251294
O	9.296906	-4.023666	-4.023666
Pa	5.273233	-5.274959	0.000000
Pa	7.909849	-7.912439	-2.637480
Pb	3.954925	-6.593699	-3.956220
Pb	9.228157	-3.956220	-1.318740
Pb	11.864774	-6.593699	-1.318740
Pb	6.591541	-3.956220	-3.956220
O	14.432641	-1.386186	-1.386186
O	9.159408	1.386186	-3.888773
O	11.933523	-1.386186	-3.888773
O	11.796024	1.251294	-1.251294
O	17.206755	1.386186	-1.386186
O	11.796024	4.023666	-4.023666
O	14.570139	4.023666	-1.251294
O	14.570139	1.251294	-4.023666
Pa	10.546465	0.000000	0.000000
Pa	13.183082	-2.637480	-2.637480
Pb	9.228157	-1.318740	-3.956220
Pb	14.501390	1.318740	-1.318740
Pb	17.138006	-1.318740	-1.318740
Pb	11.864774	1.318740	-3.956220
O	3.886175	-6.661146	-6.661146
O	-1.387057	-3.888773	-9.163733
O	1.387057	-6.661146	-9.163733
O	1.249559	-4.023666	-6.526253
O	6.660290	-3.888773	-6.661146
O	1.249559	-1.251294	-9.298625
O	4.023674	-1.251294	-6.526253
O	4.023674	-4.023666	-9.298625
Pa	0.000000	-5.274959	-5.274959
Pa	2.636616	-7.912439	-7.912439
Pb	-1.318308	-6.593699	-9.231179
Pb	3.954925	-3.956220	-6.593699
Pb	6.591541	-6.593699	-6.593699
Pb	1.318308	-3.956220	-9.231179
O	9.159408	-1.386186	-6.661146
O	3.886175	1.386186	-9.163733
O	6.660290	-1.386186	-9.163733
O	6.522792	1.251294	-6.526253
O	11.933523	1.386186	-6.661146
O	6.522792	4.023666	-9.298625
O	9.296906	4.023666	-6.526253
O	9.296906	1.251294	-9.298625
Pa	5.273233	0.000000	-5.274959
Pa	7.909849	-2.637480	-7.912439
Pb	3.954925	-1.318740	-9.231179
Pb	9.228157	1.318740	-6.593699
Pb	11.864774	-1.318740	-6.593699
Pb	6.591541	1.318740	-9.231179
