40

Eu	2.274070	2.274070	2.274070
O	2.274070	2.274070	0.000000
O	0.000000	2.274070	2.274070
O	2.274070	0.000000	2.274070
Rb	0.000000	0.000000	0.000000
Eu	2.274070	2.274070	6.822197
O	2.274070	2.274070	4.548127
O	0.000000	2.274070	6.822197
O	2.274070	0.000000	6.822197
Rb	0.000000	0.000000	4.548127
Eu	2.274070	6.822197	2.274070
O	2.274070	6.822197	0.000000
O	0.000000	6.822197	2.274070
O	2.274070	4.548127	2.274070
Rb	0.000000	4.548127	0.000000
Eu	2.274070	6.822197	6.822197
O	2.274070	6.822197	4.548127
O	0.000000	6.822197	6.822197
O	2.274070	4.548127	6.822197
Rb	0.000000	4.548127	4.548127
Eu	6.822197	2.274070	2.274070
O	6.822197	2.274070	0.000000
O	4.548127	2.274070	2.274070
O	6.822197	0.000000	2.274070
Rb	4.548127	0.000000	0.000000
Eu	6.822197	2.274070	6.822197
O	6.822197	2.274070	4.548127
O	4.548127	2.274070	6.822197
O	6.822197	0.000000	6.822197
Rb	4.548127	0.000000	4.548127
Eu	6.822197	6.822197	2.274070
O	6.822197	6.822197	0.000000
O	4.548127	6.822197	2.274070
O	6.822197	4.548127	2.274070
Rb	4.548127	4.548127	0.000000
Eu	6.822197	6.822197	6.822197
O	6.822197	6.822197	4.548127
O	4.548127	6.822197	6.822197
O	6.822197	4.548127	6.822197
Rb	4.548127	4.548127	4.548127
