40

O	2.245250	2.245250	0.000000
O	0.000000	2.245250	2.245250
O	2.245250	0.000000	2.245250
Th	2.245250	2.245250	2.245250
Zn	0.000000	0.000000	0.000000
O	2.245250	2.245250	4.490492
O	0.000000	2.245250	6.735742
O	2.245250	0.000000	6.735742
Th	2.245250	2.245250	6.735742
Zn	0.000000	0.000000	4.490492
O	2.245250	6.735742	0.000000
O	0.000000	6.735742	2.245250
O	2.245250	4.490492	2.245250
Th	2.245250	6.735742	2.245250
Zn	0.000000	4.490492	0.000000
O	2.245250	6.735742	4.490492
O	0.000000	6.735742	6.735742
O	2.245250	4.490492	6.735742
Th	2.245250	6.735742	6.735742
Zn	0.000000	4.490492	4.490492
O	6.735742	2.245250	0.000000
O	4.490492	2.245250	2.245250
O	6.735742	0.000000	2.245250
Th	6.735742	2.245250	2.245250
Zn	4.490492	0.000000	0.000000
O	6.735742	2.245250	4.490492
O	4.490492	2.245250	6.735742
O	6.735742	0.000000	6.735742
Th	6.735742	2.245250	6.735742
Zn	4.490492	0.000000	4.490492
O	6.735742	6.735742	0.000000
O	4.490492	6.735742	2.245250
O	6.735742	4.490492	2.245250
Th	6.735742	6.735742	2.245250
Zn	4.490492	4.490492	0.000000
O	6.735742	6.735742	4.490492
O	4.490492	6.735742	6.735742
O	6.735742	4.490492	6.735742
Th	6.735742	6.735742	6.735742
Zn	4.490492	4.490492	4.490492
