40

Al	0.000000	0.000000	0.000000
O	2.008990	0.000000	2.008990
O	0.000000	2.008990	2.008990
O	2.008990	2.008990	0.000000
Sb	2.008990	2.008990	2.008990
Al	0.000000	0.000000	4.017984
O	2.008990	0.000000	6.026974
O	0.000000	2.008990	6.026974
O	2.008990	2.008990	4.017984
Sb	2.008990	2.008990	6.026974
Al	0.000000	4.017984	0.000000
O	2.008990	4.017984	2.008990
O	0.000000	6.026974	2.008990
O	2.008990	6.026974	0.000000
Sb	2.008990	6.026974	2.008990
Al	0.000000	4.017984	4.017984
O	2.008990	4.017984	6.026974
O	0.000000	6.026974	6.026974
O	2.008990	6.026974	4.017984
Sb	2.008990	6.026974	6.026974
Al	4.017984	0.000000	0.000000
O	6.026974	0.000000	2.008990
O	4.017984	2.008990	2.008990
O	6.026974	2.008990	0.000000
Sb	6.026974	2.008990	2.008990
Al	4.017984	0.000000	4.017984
O	6.026974	0.000000	6.026974
O	4.017984	2.008990	6.026974
O	6.026974	2.008990	4.017984
Sb	6.026974	2.008990	6.026974
Al	4.017984	4.017984	0.000000
O	6.026974	4.017984	2.008990
O	4.017984	6.026974	2.008990
O	6.026974	6.026974	0.000000
Sb	6.026974	6.026974	2.008990
Al	4.017984	4.017984	4.017984
O	6.026974	4.017984	6.026974
O	4.017984	6.026974	6.026974
O	6.026974	6.026974	4.017984
Sb	6.026974	6.026974	6.026974
