112

Ho	0.000000	0.000000	0.000000
Ho	2.171667	-2.172225	-2.172225
Li	-1.085838	-1.086113	-3.258328
Li	5.429172	-1.086113	-1.086113
Li	1.085838	1.086113	-3.258328
Li	3.257505	1.086113	-1.086113
O	3.381099	-0.961827	-0.961827
O	-0.962234	0.961827	-3.382614
O	0.962234	-0.961827	-3.382614
O	1.209432	1.210398	-1.210398
O	5.305578	0.961827	-0.961827
O	1.209432	3.134042	-3.134042
O	3.133911	3.134042	-1.210398
O	3.133911	1.210398	-3.134042
Ho	4.343336	4.344442	0.000000
Ho	6.515003	2.172217	-2.172225
Li	3.257498	3.258330	-3.258328
Li	9.772508	3.258330	-1.086113
Li	5.429174	5.430555	-3.258328
Li	7.600841	5.430555	-1.086113
O	7.724435	3.382616	-0.961827
O	3.381102	5.306269	-3.382614
O	5.305570	3.382616	-3.382614
O	5.552768	5.554841	-1.210398
O	9.648914	5.306269	-0.961827
O	5.552768	7.478484	-3.134042
O	7.477247	7.478484	-1.210398
O	7.477247	5.554841	-3.134042
Ho	-4.343336	0.000000	-4.344442
Ho	-2.171669	-2.172225	-6.516667
Li	-5.429174	-1.086113	-7.602770
Li	1.085836	-1.086113	-5.430555
Li	-3.257498	1.086113	-7.602770
Li	-1.085831	1.086113	-5.430555
O	-0.962237	-0.961827	-5.306269
O	-5.305570	0.961827	-7.727056
O	-3.381102	-0.961827	-7.727056
O	-3.133904	1.210398	-5.554841
O	0.962242	0.961827	-5.306269
O	-3.133904	3.134042	-7.478484
O	-1.209425	3.134042	-5.554841
O	-1.209425	1.210398	-7.478484
Ho	0.000000	4.344442	-4.344442
Ho	2.171667	2.172217	-6.516667
Li	-1.085838	3.258330	-7.602770
Li	5.429172	3.258330	-5.430555
Li	1.085838	5.430555	-7.602770
Li	3.257505	5.430555	-5.430555
O	3.381099	3.382616	-5.306269
O	-0.962234	5.306269	-7.727056
O	0.962234	3.382616	-7.727056
O	1.209432	5.554841	-5.554841
O	5.305578	5.306269	-5.306269
O	1.209432	7.478484	-7.478484
O	3.133911	7.478484	-5.554841
O	3.133911	5.554841	-7.478484
Ho	4.343336	-4.344442	0.000000
Ho	6.515003	-6.516667	-2.172225
Li	3.257498	-5.430555	-3.258328
Li	9.772508	-5.430555	-1.086113
Li	5.429174	-3.258330	-3.258328
Li	7.600841	-3.258330	-1.086113
O	7.724435	-5.306269	-0.961827
O	3.381102	-3.382616	-3.382614
O	5.305570	-5.306269	-3.382614
O	5.552768	-3.134044	-1.210398
O	9.648914	-3.382616	-0.961827
O	5.552768	-1.210400	-3.134042
O	7.477247	-1.210400	-1.210398
O	7.477247	-3.134044	-3.134042
Ho	8.686672	0.000000	0.000000
Ho	10.858339	-2.172225	-2.172225
Li	7.600834	-1.086113	-3.258328
Li	14.115844	-1.086113	-1.086113
Li	9.772510	1.086113	-3.258328
Li	11.944177	1.086113	-1.086113
O	12.067771	-0.961827	-0.961827
O	7.724438	0.961827	-3.382614
O	9.648906	-0.961827	-3.382614
O	9.896104	1.210398	-1.210398
O	13.992250	0.961827	-0.961827
O	9.896104	3.134042	-3.134042
O	11.820583	3.134042	-1.210398
O	11.820583	1.210398	-3.134042
Ho	0.000000	-4.344442	-4.344442
Ho	2.171667	-6.516667	-6.516667
Li	-1.085838	-5.430555	-7.602770
Li	5.429172	-5.430555	-5.430555
Li	1.085838	-3.258330	-7.602770
Li	3.257505	-3.258330	-5.430555
O	3.381099	-5.306269	-5.306269
O	-0.962234	-3.382616	-7.727056
O	0.962234	-5.306269	-7.727056
O	1.209432	-3.134044	-5.554841
O	5.305578	-3.382616	-5.306269
O	1.209432	-1.210400	-7.478484
O	3.133911	-1.210400	-5.554841
O	3.133911	-3.134044	-7.478484
Ho	4.343336	0.000000	-4.344442
Ho	6.515003	-2.172225	-6.516667
Li	3.257498	-1.086113	-7.602770
Li	9.772508	-1.086113	-5.430555
Li	5.429174	1.086113	-7.602770
Li	7.600841	1.086113	-5.430555
O	7.724435	-0.961827	-5.306269
O	3.381102	0.961827	-7.727056
O	5.305570	-0.961827	-7.727056
O	5.552768	1.210398	-5.554841
O	9.648914	0.961827	-5.306269
O	5.552768	3.134042	-7.478484
O	7.477247	3.134042	-5.554841
O	7.477247	1.210398	-7.478484
