40

O	2.137326	2.137326	0.000000
O	2.137326	0.000000	2.137326
O	0.000000	2.137326	2.137326
Rb	2.137326	2.137326	2.137326
W	0.000000	0.000000	0.000000
O	2.137326	2.137326	4.274664
O	2.137326	0.000000	6.411990
O	0.000000	2.137326	6.411990
Rb	2.137326	2.137326	6.411990
W	0.000000	0.000000	4.274664
O	2.137326	6.411990	0.000000
O	2.137326	4.274664	2.137326
O	0.000000	6.411990	2.137326
Rb	2.137326	6.411990	2.137326
W	0.000000	4.274664	0.000000
O	2.137326	6.411990	4.274664
O	2.137326	4.274664	6.411990
O	0.000000	6.411990	6.411990
Rb	2.137326	6.411990	6.411990
W	0.000000	4.274664	4.274664
O	6.411990	2.137326	0.000000
O	6.411990	0.000000	2.137326
O	4.274664	2.137326	2.137326
Rb	6.411990	2.137326	2.137326
W	4.274664	0.000000	0.000000
O	6.411990	2.137326	4.274664
O	6.411990	0.000000	6.411990
O	4.274664	2.137326	6.411990
Rb	6.411990	2.137326	6.411990
W	4.274664	0.000000	4.274664
O	6.411990	6.411990	0.000000
O	6.411990	4.274664	2.137326
O	4.274664	6.411990	2.137326
Rb	6.411990	6.411990	2.137326
W	4.274664	4.274664	0.000000
O	6.411990	6.411990	4.274664
O	6.411990	4.274664	6.411990
O	4.274664	6.411990	6.411990
Rb	6.411990	6.411990	6.411990
W	4.274664	4.274664	4.274664
