40

O	0.000000	2.175439	2.175439
O	2.175439	0.000000	2.175439
O	2.175439	2.175439	0.000000
Rb	2.175439	2.175439	2.175439
W	0.000000	0.000000	0.000000
O	0.000000	2.175439	6.526316
O	2.175439	0.000000	6.526316
O	2.175439	2.175439	4.350877
Rb	2.175439	2.175439	6.526316
W	0.000000	0.000000	4.350877
O	0.000000	6.526316	2.175439
O	2.175439	4.350877	2.175439
O	2.175439	6.526316	0.000000
Rb	2.175439	6.526316	2.175439
W	0.000000	4.350877	0.000000
O	0.000000	6.526316	6.526316
O	2.175439	4.350877	6.526316
O	2.175439	6.526316	4.350877
Rb	2.175439	6.526316	6.526316
W	0.000000	4.350877	4.350877
O	4.350877	2.175439	2.175439
O	6.526316	0.000000	2.175439
O	6.526316	2.175439	0.000000
Rb	6.526316	2.175439	2.175439
W	4.350877	0.000000	0.000000
O	4.350877	2.175439	6.526316
O	6.526316	0.000000	6.526316
O	6.526316	2.175439	4.350877
Rb	6.526316	2.175439	6.526316
W	4.350877	0.000000	4.350877
O	4.350877	6.526316	2.175439
O	6.526316	4.350877	2.175439
O	6.526316	6.526316	0.000000
Rb	6.526316	6.526316	2.175439
W	4.350877	4.350877	0.000000
O	4.350877	6.526316	6.526316
O	6.526316	4.350877	6.526316
O	6.526316	6.526316	4.350877
Rb	6.526316	6.526316	6.526316
W	4.350877	4.350877	4.350877
