40

O	1.992220	1.992220	0.000000
O	0.000000	1.992220	1.992220
O	1.992220	0.000000	1.992220
Rb_sv	0.000000	0.000000	0.000000
W_pv	1.992220	1.992220	1.992220
O	1.992220	1.992220	3.984441
O	0.000000	1.992220	5.976661
O	1.992220	0.000000	5.976661
Rb_sv	0.000000	0.000000	3.984441
W_pv	1.992220	1.992220	5.976661
O	1.992220	5.976661	0.000000
O	0.000000	5.976661	1.992220
O	1.992220	3.984441	1.992220
Rb_sv	0.000000	3.984441	0.000000
W_pv	1.992220	5.976661	1.992220
O	1.992220	5.976661	3.984441
O	0.000000	5.976661	5.976661
O	1.992220	3.984441	5.976661
Rb_sv	0.000000	3.984441	3.984441
W_pv	1.992220	5.976661	5.976661
O	5.976661	1.992220	0.000000
O	3.984441	1.992220	1.992220
O	5.976661	0.000000	1.992220
Rb_sv	3.984441	0.000000	0.000000
W_pv	5.976661	1.992220	1.992220
O	5.976661	1.992220	3.984441
O	3.984441	1.992220	5.976661
O	5.976661	0.000000	5.976661
Rb_sv	3.984441	0.000000	3.984441
W_pv	5.976661	1.992220	5.976661
O	5.976661	5.976661	0.000000
O	3.984441	5.976661	1.992220
O	5.976661	3.984441	1.992220
Rb_sv	3.984441	3.984441	0.000000
W_pv	5.976661	5.976661	1.992220
O	5.976661	5.976661	3.984441
O	3.984441	5.976661	5.976661
O	5.976661	3.984441	5.976661
Rb_sv	3.984441	3.984441	3.984441
W_pv	5.976661	5.976661	5.976661
