40

Ba	2.348855	2.348855	2.348855
O	2.348855	2.348855	0.000000
O	2.348855	0.000000	2.348855
O	0.000000	2.348855	2.348855
Sm	0.000000	0.000000	0.000000
Ba	2.348855	2.348855	7.046565
O	2.348855	2.348855	4.697710
O	2.348855	0.000000	7.046565
O	0.000000	2.348855	7.046565
Sm	0.000000	0.000000	4.697710
Ba	2.348855	7.046565	2.348855
O	2.348855	7.046565	0.000000
O	2.348855	4.697710	2.348855
O	0.000000	7.046565	2.348855
Sm	0.000000	4.697710	0.000000
Ba	2.348855	7.046565	7.046565
O	2.348855	7.046565	4.697710
O	2.348855	4.697710	7.046565
O	0.000000	7.046565	7.046565
Sm	0.000000	4.697710	4.697710
Ba	7.046565	2.348855	2.348855
O	7.046565	2.348855	0.000000
O	7.046565	0.000000	2.348855
O	4.697710	2.348855	2.348855
Sm	4.697710	0.000000	0.000000
Ba	7.046565	2.348855	7.046565
O	7.046565	2.348855	4.697710
O	7.046565	0.000000	7.046565
O	4.697710	2.348855	7.046565
Sm	4.697710	0.000000	4.697710
Ba	7.046565	7.046565	2.348855
O	7.046565	7.046565	0.000000
O	7.046565	4.697710	2.348855
O	4.697710	7.046565	2.348855
Sm	4.697710	4.697710	0.000000
Ba	7.046565	7.046565	7.046565
O	7.046565	7.046565	4.697710
O	7.046565	4.697710	7.046565
O	4.697710	7.046565	7.046565
Sm	4.697710	4.697710	4.697710
