40

Cd	0.000000	0.000000	0.000000
O	1.955060	0.000000	1.955060
O	0.000000	1.955060	1.955060
O	1.955060	1.955060	0.000000
Os_pv	1.955060	1.955060	1.955060
Cd	0.000000	0.000000	3.910115
O	1.955060	0.000000	5.865175
O	0.000000	1.955060	5.865175
O	1.955060	1.955060	3.910115
Os_pv	1.955060	1.955060	5.865175
Cd	0.000000	3.910115	0.000000
O	1.955060	3.910115	1.955060
O	0.000000	5.865175	1.955060
O	1.955060	5.865175	0.000000
Os_pv	1.955060	5.865175	1.955060
Cd	0.000000	3.910115	3.910115
O	1.955060	3.910115	5.865175
O	0.000000	5.865175	5.865175
O	1.955060	5.865175	3.910115
Os_pv	1.955060	5.865175	5.865175
Cd	3.910115	0.000000	0.000000
O	5.865175	0.000000	1.955060
O	3.910115	1.955060	1.955060
O	5.865175	1.955060	0.000000
Os_pv	5.865175	1.955060	1.955060
Cd	3.910115	0.000000	3.910115
O	5.865175	0.000000	5.865175
O	3.910115	1.955060	5.865175
O	5.865175	1.955060	3.910115
Os_pv	5.865175	1.955060	5.865175
Cd	3.910115	3.910115	0.000000
O	5.865175	3.910115	1.955060
O	3.910115	5.865175	1.955060
O	5.865175	5.865175	0.000000
Os_pv	5.865175	5.865175	1.955060
Cd	3.910115	3.910115	3.910115
O	5.865175	3.910115	5.865175
O	3.910115	5.865175	5.865175
O	5.865175	5.865175	3.910115
Os_pv	5.865175	5.865175	5.865175
