40

Cr	1.927150	1.927150	1.927150
O	1.927150	1.927150	0.000000
O	0.000000	1.927150	1.927150
O	1.927150	0.000000	1.927150
Sr	0.000000	0.000000	0.000000
Cr	1.927150	1.927150	5.781447
O	1.927150	1.927150	3.854297
O	0.000000	1.927150	5.781447
O	1.927150	0.000000	5.781447
Sr	0.000000	0.000000	3.854297
Cr	1.927150	5.781447	1.927150
O	1.927150	5.781447	0.000000
O	0.000000	5.781447	1.927150
O	1.927150	3.854297	1.927150
Sr	0.000000	3.854297	0.000000
Cr	1.927150	5.781447	5.781447
O	1.927150	5.781447	3.854297
O	0.000000	5.781447	5.781447
O	1.927150	3.854297	5.781447
Sr	0.000000	3.854297	3.854297
Cr	5.781447	1.927150	1.927150
O	5.781447	1.927150	0.000000
O	3.854297	1.927150	1.927150
O	5.781447	0.000000	1.927150
Sr	3.854297	0.000000	0.000000
Cr	5.781447	1.927150	5.781447
O	5.781447	1.927150	3.854297
O	3.854297	1.927150	5.781447
O	5.781447	0.000000	5.781447
Sr	3.854297	0.000000	3.854297
Cr	5.781447	5.781447	1.927150
O	5.781447	5.781447	0.000000
O	3.854297	5.781447	1.927150
O	5.781447	3.854297	1.927150
Sr	3.854297	3.854297	0.000000
Cr	5.781447	5.781447	5.781447
O	5.781447	5.781447	3.854297
O	3.854297	5.781447	5.781447
O	5.781447	3.854297	5.781447
Sr	3.854297	3.854297	3.854297
