40

Cr	0.000000	0.000000	0.000000
O	0.000000	2.276894	2.276894
O	2.276894	0.000000	2.276894
O	2.276894	2.276894	0.000000
Sr	2.276894	2.276894	2.276894
Cr	0.000000	0.000000	4.553787
O	0.000000	2.276894	6.830681
O	2.276894	0.000000	6.830681
O	2.276894	2.276894	4.553787
Sr	2.276894	2.276894	6.830681
Cr	0.000000	4.553787	0.000000
O	0.000000	6.830681	2.276894
O	2.276894	4.553787	2.276894
O	2.276894	6.830681	0.000000
Sr	2.276894	6.830681	2.276894
Cr	0.000000	4.553787	4.553787
O	0.000000	6.830681	6.830681
O	2.276894	4.553787	6.830681
O	2.276894	6.830681	4.553787
Sr	2.276894	6.830681	6.830681
Cr	4.553787	0.000000	0.000000
O	4.553787	2.276894	2.276894
O	6.830681	0.000000	2.276894
O	6.830681	2.276894	0.000000
Sr	6.830681	2.276894	2.276894
Cr	4.553787	0.000000	4.553787
O	4.553787	2.276894	6.830681
O	6.830681	0.000000	6.830681
O	6.830681	2.276894	4.553787
Sr	6.830681	2.276894	6.830681
Cr	4.553787	4.553787	0.000000
O	4.553787	6.830681	2.276894
O	6.830681	4.553787	2.276894
O	6.830681	6.830681	0.000000
Sr	6.830681	6.830681	2.276894
Cr	4.553787	4.553787	4.553787
O	4.553787	6.830681	6.830681
O	6.830681	4.553787	6.830681
O	6.830681	6.830681	4.553787
Sr	6.830681	6.830681	6.830681
