40

Gd	0.000000	0.000000	0.000000
O	2.212669	2.212669	0.000000
O	2.212669	0.000000	2.212669
O	0.000000	2.212669	2.212669
U	2.212669	2.212669	2.212669
Gd	0.000000	0.000000	4.425339
O	2.212669	2.212669	4.425339
O	2.212669	0.000000	6.638008
O	0.000000	2.212669	6.638008
U	2.212669	2.212669	6.638008
Gd	0.000000	4.425339	0.000000
O	2.212669	6.638008	0.000000
O	2.212669	4.425339	2.212669
O	0.000000	6.638008	2.212669
U	2.212669	6.638008	2.212669
Gd	0.000000	4.425339	4.425339
O	2.212669	6.638008	4.425339
O	2.212669	4.425339	6.638008
O	0.000000	6.638008	6.638008
U	2.212669	6.638008	6.638008
Gd	4.425339	0.000000	0.000000
O	6.638008	2.212669	0.000000
O	6.638008	0.000000	2.212669
O	4.425339	2.212669	2.212669
U	6.638008	2.212669	2.212669
Gd	4.425339	0.000000	4.425339
O	6.638008	2.212669	4.425339
O	6.638008	0.000000	6.638008
O	4.425339	2.212669	6.638008
U	6.638008	2.212669	6.638008
Gd	4.425339	4.425339	0.000000
O	6.638008	6.638008	0.000000
O	6.638008	4.425339	2.212669
O	4.425339	6.638008	2.212669
U	6.638008	6.638008	2.212669
Gd	4.425339	4.425339	4.425339
O	6.638008	6.638008	4.425339
O	6.638008	4.425339	6.638008
O	4.425339	6.638008	6.638008
U	6.638008	6.638008	6.638008
