440

Ca	2.370681	2.428425	2.428425
Ca	4.799106	0.000000	4.799106
Ca	2.370681	7.169788	7.169788
Ca	4.799106	4.799106	0.000000
Ca	7.227532	2.428425	7.169788
Ca	0.000000	0.000000	0.000000
Ca	7.227532	7.169788	2.428425
Er	1.199783	8.404166	3.599323
Er	3.601414	1.197693	8.400520
Er	3.605060	3.599323	5.998890
Er	1.199783	1.194047	5.998890
Er	1.199783	3.599323	8.404166
Er	3.605060	5.998890	3.599323
Er	3.601414	8.400520	1.197693
Er	1.199783	5.998890	1.194047
Er	5.996799	8.400520	8.400520
Er	8.398430	1.194047	3.599323
Er	8.398430	3.599323	1.194047
Er	5.996799	1.197693	1.197693
Er	5.993153	3.599323	3.599323
Er	8.398430	5.998890	8.404166
Er	8.398430	8.404166	5.998890
Er	5.993153	5.998890	5.998890
O	3.726144	1.072962	1.072962
O	5.865841	3.731292	5.866921
O	5.872069	1.072962	8.525250
O	3.732371	3.731292	3.731292
O	3.478550	1.320557	6.131977
O	1.332871	8.277656	1.320557
O	1.332871	1.320557	8.277656
O	3.478550	8.277656	3.466236
O	3.732371	5.866921	5.866921
O	5.872069	8.525250	1.072962
O	5.865841	5.866921	3.731292
O	3.726144	8.525250	8.525250
O	3.478550	6.131977	1.320557
O	1.424354	3.374753	6.223460
O	1.424354	6.223460	3.374753
O	3.478550	3.466236	8.277656
O	8.530398	1.066735	5.866921
O	1.067815	3.731292	1.066735
O	1.067815	1.066735	3.731292
O	8.530398	3.731292	8.531478
O	8.265342	1.320557	1.320557
O	6.119663	8.277656	6.131977
O	6.119663	1.320557	3.466236
O	8.265342	8.277656	8.277656
O	8.530398	5.866921	1.066735
O	1.067815	8.531478	5.866921
O	1.067815	5.866921	8.531478
O	8.530398	8.531478	3.731292
O	8.173859	6.223460	6.223460
O	6.119663	3.466236	1.320557
O	6.119663	6.131977	8.277656
O	8.173859	3.374753	3.374753
Ca	2.370681	2.428425	12.026638
Ca	4.799106	0.000000	14.397319
Ca	2.370681	7.169788	16.768001
Ca	4.799106	4.799106	9.598213
Ca	7.227532	2.428425	16.768001
Ca	0.000000	0.000000	9.598213
Ca	7.227532	7.169788	12.026638
Er	1.199783	8.404166	13.197536
Er	3.601414	1.197693	17.998733
Er	3.605060	3.599323	15.597102
Er	1.199783	1.194047	15.597102
Er	1.199783	3.599323	18.002379
Er	3.605060	5.998890	13.197536
Er	3.601414	8.400520	10.795905
Er	1.199783	5.998890	10.792260
Er	5.996799	8.400520	17.998733
Er	8.398430	1.194047	13.197536
Er	8.398430	3.599323	10.792260
Er	5.996799	1.197693	10.795905
Er	5.993153	3.599323	13.197536
Er	8.398430	5.998890	18.002379
Er	8.398430	8.404166	15.597102
Er	5.993153	5.998890	15.597102
O	3.726144	1.072962	10.671175
O	5.865841	3.731292	15.465134
O	5.872069	1.072962	18.123463
O	3.732371	3.731292	13.329505
O	3.478550	1.320557	15.730190
O	1.332871	8.277656	10.918770
O	1.332871	1.320557	17.875869
O	3.478550	8.277656	13.064448
O	3.732371	5.866921	15.465134
O	5.872069	8.525250	10.671175
O	5.865841	5.866921	13.329505
O	3.726144	8.525250	18.123463
O	3.478550	6.131977	10.918770
O	1.424354	3.374753	15.821673
O	1.424354	6.223460	12.972966
O	3.478550	3.466236	17.875869
O	8.530398	1.066735	15.465134
O	1.067815	3.731292	10.664948
O	1.067815	1.066735	13.329505
O	8.530398	3.731292	18.129691
O	8.265342	1.320557	10.918770
O	6.119663	8.277656	15.730190
O	6.119663	1.320557	13.064448
O	8.265342	8.277656	17.875869
O	8.530398	5.866921	10.664948
O	1.067815	8.531478	15.465134
O	1.067815	5.866921	18.129691
O	8.530398	8.531478	13.329505
O	8.173859	6.223460	15.821673
O	6.119663	3.466236	10.918770
O	6.119663	6.131977	17.875869
O	8.173859	3.374753	12.972966
Ca	2.370681	12.026638	2.428425
Ca	4.799106	9.598213	4.799106
Ca	2.370681	16.768001	7.169788
Ca	4.799106	14.397319	0.000000
Ca	7.227532	12.026638	7.169788
Ca	0.000000	9.598213	0.000000
Ca	7.227532	16.768001	2.428425
Er	1.199783	18.002379	3.599323
Er	3.601414	10.795905	8.400520
Er	3.605060	13.197536	5.998890
Er	1.199783	10.792260	5.998890
Er	1.199783	13.197536	8.404166
Er	3.605060	15.597102	3.599323
Er	3.601414	17.998733	1.197693
Er	1.199783	15.597102	1.194047
Er	5.996799	17.998733	8.400520
Er	8.398430	10.792260	3.599323
Er	8.398430	13.197536	1.194047
Er	5.996799	10.795905	1.197693
Er	5.993153	13.197536	3.599323
Er	8.398430	15.597102	8.404166
Er	8.398430	18.002379	5.998890
Er	5.993153	15.597102	5.998890
O	3.726144	10.671175	1.072962
O	5.865841	13.329505	5.866921
O	5.872069	10.671175	8.525250
O	3.732371	13.329505	3.731292
O	3.478550	10.918770	6.131977
O	1.332871	17.875869	1.320557
O	1.332871	10.918770	8.277656
O	3.478550	17.875869	3.466236
O	3.732371	15.465134	5.866921
O	5.872069	18.123463	1.072962
O	5.865841	15.465134	3.731292
O	3.726144	18.123463	8.525250
O	3.478550	15.730190	1.320557
O	1.424354	12.972966	6.223460
O	1.424354	15.821673	3.374753
O	3.478550	13.064448	8.277656
O	8.530398	10.664948	5.866921
O	1.067815	13.329505	1.066735
O	1.067815	10.664948	3.731292
O	8.530398	13.329505	8.531478
O	8.265342	10.918770	1.320557
O	6.119663	17.875869	6.131977
O	6.119663	10.918770	3.466236
O	8.265342	17.875869	8.277656
O	8.530398	15.465134	1.066735
O	1.067815	18.129691	5.866921
O	1.067815	15.465134	8.531478
O	8.530398	18.129691	3.731292
O	8.173859	15.821673	6.223460
O	6.119663	13.064448	1.320557
O	6.119663	15.730190	8.277656
O	8.173859	12.972966	3.374753
Ca	2.370681	12.026638	12.026638
Ca	4.799106	9.598213	14.397319
Ca	2.370681	16.768001	16.768001
Ca	4.799106	14.397319	9.598213
Ca	7.227532	12.026638	16.768001
Ca	0.000000	9.598213	9.598213
Ca	7.227532	16.768001	12.026638
Er	1.199783	18.002379	13.197536
Er	3.601414	10.795905	17.998733
Er	3.605060	13.197536	15.597102
Er	1.199783	10.792260	15.597102
Er	1.199783	13.197536	18.002379
Er	3.605060	15.597102	13.197536
Er	3.601414	17.998733	10.795905
Er	1.199783	15.597102	10.792260
Er	5.996799	17.998733	17.998733
Er	8.398430	10.792260	13.197536
Er	8.398430	13.197536	10.792260
Er	5.996799	10.795905	10.795905
Er	5.993153	13.197536	13.197536
Er	8.398430	15.597102	18.002379
Er	8.398430	18.002379	15.597102
Er	5.993153	15.597102	15.597102
O	3.726144	10.671175	10.671175
O	5.865841	13.329505	15.465134
O	5.872069	10.671175	18.123463
O	3.732371	13.329505	13.329505
O	3.478550	10.918770	15.730190
O	1.332871	17.875869	10.918770
O	1.332871	10.918770	17.875869
O	3.478550	17.875869	13.064448
O	3.732371	15.465134	15.465134
O	5.872069	18.123463	10.671175
O	5.865841	15.465134	13.329505
O	3.726144	18.123463	18.123463
O	3.478550	15.730190	10.918770
O	1.424354	12.972966	15.821673
O	1.424354	15.821673	12.972966
O	3.478550	13.064448	17.875869
O	8.530398	10.664948	15.465134
O	1.067815	13.329505	10.664948
O	1.067815	10.664948	13.329505
O	8.530398	13.329505	18.129691
O	8.265342	10.918770	10.918770
O	6.119663	17.875869	15.730190
O	6.119663	10.918770	13.064448
O	8.265342	17.875869	17.875869
O	8.530398	15.465134	10.664948
O	1.067815	18.129691	15.465134
O	1.067815	15.465134	18.129691
O	8.530398	18.129691	13.329505
O	8.173859	15.821673	15.821673
O	6.119663	13.064448	10.918770
O	6.119663	15.730190	17.875869
O	8.173859	12.972966	12.972966
Ca	11.968894	2.428425	2.428425
Ca	14.397319	0.000000	4.799106
Ca	11.968894	7.169788	7.169788
Ca	14.397319	4.799106	0.000000
Ca	16.825744	2.428425	7.169788
Ca	9.598213	0.000000	0.000000
Ca	16.825744	7.169788	2.428425
Er	10.797996	8.404166	3.599323
Er	13.199627	1.197693	8.400520
Er	13.203272	3.599323	5.998890
Er	10.797996	1.194047	5.998890
Er	10.797996	3.599323	8.404166
Er	13.203272	5.998890	3.599323
Er	13.199627	8.400520	1.197693
Er	10.797996	5.998890	1.194047
Er	15.595012	8.400520	8.400520
Er	17.996643	1.194047	3.599323
Er	17.996643	3.599323	1.194047
Er	15.595012	1.197693	1.197693
Er	15.591366	3.599323	3.599323
Er	17.996643	5.998890	8.404166
Er	17.996643	8.404166	5.998890
Er	15.591366	5.998890	5.998890
O	13.324357	1.072962	1.072962
O	15.464054	3.731292	5.866921
O	15.470282	1.072962	8.525250
O	13.330584	3.731292	3.731292
O	13.076763	1.320557	6.131977
O	10.931084	8.277656	1.320557
O	10.931084	1.320557	8.277656
O	13.076763	8.277656	3.466236
O	13.330584	5.866921	5.866921
O	15.470282	8.525250	1.072962
O	15.464054	5.866921	3.731292
O	13.324357	8.525250	8.525250
O	13.076763	6.131977	1.320557
O	11.022567	3.374753	6.223460
O	11.022567	6.223460	3.374753
O	13.076763	3.466236	8.277656
O	18.128611	1.066735	5.866921
O	10.666027	3.731292	1.066735
O	10.666027	1.066735	3.731292
O	18.128611	3.731292	8.531478
O	17.863555	1.320557	1.320557
O	15.717876	8.277656	6.131977
O	15.717876	1.320557	3.466236
O	17.863555	8.277656	8.277656
O	18.128611	5.866921	1.066735
O	10.666027	8.531478	5.866921
O	10.666027	5.866921	8.531478
O	18.128611	8.531478	3.731292
O	17.772072	6.223460	6.223460
O	15.717876	3.466236	1.320557
O	15.717876	6.131977	8.277656
O	17.772072	3.374753	3.374753
Ca	11.968894	2.428425	12.026638
Ca	14.397319	0.000000	14.397319
Ca	11.968894	7.169788	16.768001
Ca	14.397319	4.799106	9.598213
Ca	16.825744	2.428425	16.768001
Ca	9.598213	0.000000	9.598213
Ca	16.825744	7.169788	12.026638
Er	10.797996	8.404166	13.197536
Er	13.199627	1.197693	17.998733
Er	13.203272	3.599323	15.597102
Er	10.797996	1.194047	15.597102
Er	10.797996	3.599323	18.002379
Er	13.203272	5.998890	13.197536
Er	13.199627	8.400520	10.795905
Er	10.797996	5.998890	10.792260
Er	15.595012	8.400520	17.998733
Er	17.996643	1.194047	13.197536
Er	17.996643	3.599323	10.792260
Er	15.595012	1.197693	10.795905
Er	15.591366	3.599323	13.197536
Er	17.996643	5.998890	18.002379
Er	17.996643	8.404166	15.597102
Er	15.591366	5.998890	15.597102
O	13.324357	1.072962	10.671175
O	15.464054	3.731292	15.465134
O	15.470282	1.072962	18.123463
O	13.330584	3.731292	13.329505
O	13.076763	1.320557	15.730190
O	10.931084	8.277656	10.918770
O	10.931084	1.320557	17.875869
O	13.076763	8.277656	13.064448
O	13.330584	5.866921	15.465134
O	15.470282	8.525250	10.671175
O	15.464054	5.866921	13.329505
O	13.324357	8.525250	18.123463
O	13.076763	6.131977	10.918770
O	11.022567	3.374753	15.821673
O	11.022567	6.223460	12.972966
O	13.076763	3.466236	17.875869
O	18.128611	1.066735	15.465134
O	10.666027	3.731292	10.664948
O	10.666027	1.066735	13.329505
O	18.128611	3.731292	18.129691
O	17.863555	1.320557	10.918770
O	15.717876	8.277656	15.730190
O	15.717876	1.320557	13.064448
O	17.863555	8.277656	17.875869
O	18.128611	5.866921	10.664948
O	10.666027	8.531478	15.465134
O	10.666027	5.866921	18.129691
O	18.128611	8.531478	13.329505
O	17.772072	6.223460	15.821673
O	15.717876	3.466236	10.918770
O	15.717876	6.131977	17.875869
O	17.772072	3.374753	12.972966
Ca	11.968894	12.026638	2.428425
Ca	14.397319	9.598213	4.799106
Ca	11.968894	16.768001	7.169788
Ca	14.397319	14.397319	0.000000
Ca	16.825744	12.026638	7.169788
Ca	9.598213	9.598213	0.000000
Ca	16.825744	16.768001	2.428425
Er	10.797996	18.002379	3.599323
Er	13.199627	10.795905	8.400520
Er	13.203272	13.197536	5.998890
Er	10.797996	10.792260	5.998890
Er	10.797996	13.197536	8.404166
Er	13.203272	15.597102	3.599323
Er	13.199627	17.998733	1.197693
Er	10.797996	15.597102	1.194047
Er	15.595012	17.998733	8.400520
Er	17.996643	10.792260	3.599323
Er	17.996643	13.197536	1.194047
Er	15.595012	10.795905	1.197693
Er	15.591366	13.197536	3.599323
Er	17.996643	15.597102	8.404166
Er	17.996643	18.002379	5.998890
Er	15.591366	15.597102	5.998890
O	13.324357	10.671175	1.072962
O	15.464054	13.329505	5.866921
O	15.470282	10.671175	8.525250
O	13.330584	13.329505	3.731292
O	13.076763	10.918770	6.131977
O	10.931084	17.875869	1.320557
O	10.931084	10.918770	8.277656
O	13.076763	17.875869	3.466236
O	13.330584	15.465134	5.866921
O	15.470282	18.123463	1.072962
O	15.464054	15.465134	3.731292
O	13.324357	18.123463	8.525250
O	13.076763	15.730190	1.320557
O	11.022567	12.972966	6.223460
O	11.022567	15.821673	3.374753
O	13.076763	13.064448	8.277656
O	18.128611	10.664948	5.866921
O	10.666027	13.329505	1.066735
O	10.666027	10.664948	3.731292
O	18.128611	13.329505	8.531478
O	17.863555	10.918770	1.320557
O	15.717876	17.875869	6.131977
O	15.717876	10.918770	3.466236
O	17.863555	17.875869	8.277656
O	18.128611	15.465134	1.066735
O	10.666027	18.129691	5.866921
O	10.666027	15.465134	8.531478
O	18.128611	18.129691	3.731292
O	17.772072	15.821673	6.223460
O	15.717876	13.064448	1.320557
O	15.717876	15.730190	8.277656
O	17.772072	12.972966	3.374753
Ca	11.968894	12.026638	12.026638
Ca	14.397319	9.598213	14.397319
Ca	11.968894	16.768001	16.768001
Ca	14.397319	14.397319	9.598213
Ca	16.825744	12.026638	16.768001
Ca	9.598213	9.598213	9.598213
Ca	16.825744	16.768001	12.026638
Er	10.797996	18.002379	13.197536
Er	13.199627	10.795905	17.998733
Er	13.203272	13.197536	15.597102
Er	10.797996	10.792260	15.597102
Er	10.797996	13.197536	18.002379
Er	13.203272	15.597102	13.197536
Er	13.199627	17.998733	10.795905
Er	10.797996	15.597102	10.792260
Er	15.595012	17.998733	17.998733
Er	17.996643	10.792260	13.197536
Er	17.996643	13.197536	10.792260
Er	15.595012	10.795905	10.795905
Er	15.591366	13.197536	13.197536
Er	17.996643	15.597102	18.002379
Er	17.996643	18.002379	15.597102
Er	15.591366	15.597102	15.597102
O	13.324357	10.671175	10.671175
O	15.464054	13.329505	15.465134
O	15.470282	10.671175	18.123463
O	13.330584	13.329505	13.329505
O	13.076763	10.918770	15.730190
O	10.931084	17.875869	10.918770
O	10.931084	10.918770	17.875869
O	13.076763	17.875869	13.064448
O	13.330584	15.465134	15.465134
O	15.470282	18.123463	10.671175
O	15.464054	15.465134	13.329505
O	13.324357	18.123463	18.123463
O	13.076763	15.730190	10.918770
O	11.022567	12.972966	15.821673
O	11.022567	15.821673	12.972966
O	13.076763	13.064448	17.875869
O	18.128611	10.664948	15.465134
O	10.666027	13.329505	10.664948
O	10.666027	10.664948	13.329505
O	18.128611	13.329505	18.129691
O	17.863555	10.918770	10.918770
O	15.717876	17.875869	15.730190
O	15.717876	10.918770	13.064448
O	17.863555	17.875869	17.875869
O	18.128611	15.465134	10.664948
O	10.666027	18.129691	15.465134
O	10.666027	15.465134	18.129691
O	18.128611	18.129691	13.329505
O	17.772072	15.821673	15.821673
O	15.717876	13.064448	10.918770
O	15.717876	15.730190	17.875869
O	17.772072	12.972966	12.972966
