64

Mg	0.000000	2.181746	2.181746
Mg	2.181746	0.000000	2.181746
Mg	2.181746	2.181746	0.000000
Ga	0.000000	0.000000	0.000000
O	2.181746	0.000000	0.000000
O	2.181746	2.181746	2.181746
O	0.000000	0.000000	2.181746
O	0.000000	2.181746	0.000000
Mg	0.000000	2.181746	6.545237
Mg	2.181746	0.000000	6.545237
Mg	2.181746	2.181746	4.363491
Ga	0.000000	0.000000	4.363491
O	2.181746	0.000000	4.363491
O	2.181746	2.181746	6.545237
O	0.000000	0.000000	6.545237
O	0.000000	2.181746	4.363491
Mg	0.000000	6.545237	2.181746
Mg	2.181746	4.363491	2.181746
Mg	2.181746	6.545237	0.000000
Ga	0.000000	4.363491	0.000000
O	2.181746	4.363491	0.000000
O	2.181746	6.545237	2.181746
O	0.000000	4.363491	2.181746
O	0.000000	6.545237	0.000000
Mg	0.000000	6.545237	6.545237
Mg	2.181746	4.363491	6.545237
Mg	2.181746	6.545237	4.363491
Ga	0.000000	4.363491	4.363491
O	2.181746	4.363491	4.363491
O	2.181746	6.545237	6.545237
O	0.000000	4.363491	6.545237
O	0.000000	6.545237	4.363491
Mg	4.363491	2.181746	2.181746
Mg	6.545237	0.000000	2.181746
Mg	6.545237	2.181746	0.000000
Ga	4.363491	0.000000	0.000000
O	6.545237	0.000000	0.000000
O	6.545237	2.181746	2.181746
O	4.363491	0.000000	2.181746
O	4.363491	2.181746	0.000000
Mg	4.363491	2.181746	6.545237
Mg	6.545237	0.000000	6.545237
Mg	6.545237	2.181746	4.363491
Ga	4.363491	0.000000	4.363491
O	6.545237	0.000000	4.363491
O	6.545237	2.181746	6.545237
O	4.363491	0.000000	6.545237
O	4.363491	2.181746	4.363491
Mg	4.363491	6.545237	2.181746
Mg	6.545237	4.363491	2.181746
Mg	6.545237	6.545237	0.000000
Ga	4.363491	4.363491	0.000000
O	6.545237	4.363491	0.000000
O	6.545237	6.545237	2.181746
O	4.363491	4.363491	2.181746
O	4.363491	6.545237	0.000000
Mg	4.363491	6.545237	6.545237
Mg	6.545237	4.363491	6.545237
Mg	6.545237	6.545237	4.363491
Ga	4.363491	4.363491	4.363491
O	6.545237	4.363491	4.363491
O	6.545237	6.545237	6.545237
O	4.363491	4.363491	6.545237
O	4.363491	6.545237	4.363491
