40

O	1.940380	1.940380	0.000000
O	0.000000	1.940380	1.940380
O	1.940380	0.000000	1.940380
Os_pv	0.000000	0.000000	0.000000
Tc_pv	1.940380	1.940380	1.940380
O	1.940380	1.940380	3.880772
O	0.000000	1.940380	5.821152
O	1.940380	0.000000	5.821152
Os_pv	0.000000	0.000000	3.880772
Tc_pv	1.940380	1.940380	5.821152
O	1.940380	5.821152	0.000000
O	0.000000	5.821152	1.940380
O	1.940380	3.880772	1.940380
Os_pv	0.000000	3.880772	0.000000
Tc_pv	1.940380	5.821152	1.940380
O	1.940380	5.821152	3.880772
O	0.000000	5.821152	5.821152
O	1.940380	3.880772	5.821152
Os_pv	0.000000	3.880772	3.880772
Tc_pv	1.940380	5.821152	5.821152
O	5.821152	1.940380	0.000000
O	3.880772	1.940380	1.940380
O	5.821152	0.000000	1.940380
Os_pv	3.880772	0.000000	0.000000
Tc_pv	5.821152	1.940380	1.940380
O	5.821152	1.940380	3.880772
O	3.880772	1.940380	5.821152
O	5.821152	0.000000	5.821152
Os_pv	3.880772	0.000000	3.880772
Tc_pv	5.821152	1.940380	5.821152
O	5.821152	5.821152	0.000000
O	3.880772	5.821152	1.940380
O	5.821152	3.880772	1.940380
Os_pv	3.880772	3.880772	0.000000
Tc_pv	5.821152	5.821152	1.940380
O	5.821152	5.821152	3.880772
O	3.880772	5.821152	5.821152
O	5.821152	3.880772	5.821152
Os_pv	3.880772	3.880772	3.880772
Tc_pv	5.821152	5.821152	5.821152
