40

O	0.000000	1.987714	1.987714
O	1.987714	0.000000	1.987714
O	1.987714	1.987714	0.000000
Os	0.000000	0.000000	0.000000
Tc	1.987714	1.987714	1.987714
O	0.000000	1.987714	5.963141
O	1.987714	0.000000	5.963141
O	1.987714	1.987714	3.975427
Os	0.000000	0.000000	3.975427
Tc	1.987714	1.987714	5.963141
O	0.000000	5.963141	1.987714
O	1.987714	3.975427	1.987714
O	1.987714	5.963141	0.000000
Os	0.000000	3.975427	0.000000
Tc	1.987714	5.963141	1.987714
O	0.000000	5.963141	5.963141
O	1.987714	3.975427	5.963141
O	1.987714	5.963141	3.975427
Os	0.000000	3.975427	3.975427
Tc	1.987714	5.963141	5.963141
O	3.975427	1.987714	1.987714
O	5.963141	0.000000	1.987714
O	5.963141	1.987714	0.000000
Os	3.975427	0.000000	0.000000
Tc	5.963141	1.987714	1.987714
O	3.975427	1.987714	5.963141
O	5.963141	0.000000	5.963141
O	5.963141	1.987714	3.975427
Os	3.975427	0.000000	3.975427
Tc	5.963141	1.987714	5.963141
O	3.975427	5.963141	1.987714
O	5.963141	3.975427	1.987714
O	5.963141	5.963141	0.000000
Os	3.975427	3.975427	0.000000
Tc	5.963141	5.963141	1.987714
O	3.975427	5.963141	5.963141
O	5.963141	3.975427	5.963141
O	5.963141	5.963141	3.975427
Os	3.975427	3.975427	3.975427
Tc	5.963141	5.963141	5.963141
