112

Mo	0.000000	0.000000	0.000000
Mo	2.181025	-2.184474	-2.184474
O	3.304856	-1.056150	-1.056150
O	-1.057193	1.056150	-3.312798
O	1.057193	-1.056150	-3.312798
O	1.123832	1.128324	-1.128324
O	5.419242	1.056150	-1.056150
O	1.123832	3.240624	-3.240624
O	3.238217	3.240624	-1.128324
O	3.238217	1.128324	-3.240624
V	-1.090512	-1.092237	-3.276711
V	3.271537	1.092237	-1.092237
V	5.452561	-1.092237	-1.092237
V	1.090512	1.092237	-3.276711
Mo	4.362049	4.368948	0.000000
Mo	6.543074	2.184474	-2.184474
O	7.666905	3.312798	-1.056150
O	3.304856	5.425098	-3.312798
O	5.419242	3.312798	-3.312798
O	5.485881	5.497272	-1.128324
O	9.781291	5.425098	-1.056150
O	5.485881	7.609572	-3.240624
O	7.600266	7.609572	-1.128324
O	7.600266	5.497272	-3.240624
V	3.271537	3.276711	-3.276711
V	7.633586	5.461185	-1.092237
V	9.814610	3.276711	-1.092237
V	5.452561	5.461185	-3.276711
Mo	-4.362049	0.000000	-4.368948
Mo	-2.181025	-2.184474	-6.553422
O	-1.057193	-1.056150	-5.425098
O	-5.419242	1.056150	-7.681746
O	-3.304856	-1.056150	-7.681746
O	-3.238217	1.128324	-5.497272
O	1.057193	1.056150	-5.425098
O	-3.238217	3.240624	-7.609572
O	-1.123832	3.240624	-5.497272
O	-1.123832	1.128324	-7.609572
V	-5.452561	-1.092237	-7.645659
V	-1.090512	1.092237	-5.461185
V	1.090512	-1.092237	-5.461185
V	-3.271537	1.092237	-7.645659
Mo	0.000000	4.368948	-4.368948
Mo	2.181025	2.184474	-6.553422
O	3.304856	3.312798	-5.425098
O	-1.057193	5.425098	-7.681746
O	1.057193	3.312798	-7.681746
O	1.123832	5.497272	-5.497272
O	5.419242	5.425098	-5.425098
O	1.123832	7.609572	-7.609572
O	3.238217	7.609572	-5.497272
O	3.238217	5.497272	-7.609572
V	-1.090512	3.276711	-7.645659
V	3.271537	5.461185	-5.461185
V	5.452561	3.276711	-5.461185
V	1.090512	5.461185	-7.645659
Mo	4.362049	-4.368948	0.000000
Mo	6.543074	-6.553422	-2.184474
O	7.666905	-5.425098	-1.056150
O	3.304856	-3.312798	-3.312798
O	5.419242	-5.425098	-3.312798
O	5.485881	-3.240624	-1.128324
O	9.781291	-3.312798	-1.056150
O	5.485881	-1.128324	-3.240624
O	7.600266	-1.128324	-1.128324
O	7.600266	-3.240624	-3.240624
V	3.271537	-5.461185	-3.276711
V	7.633586	-3.276711	-1.092237
V	9.814610	-5.461185	-1.092237
V	5.452561	-3.276711	-3.276711
Mo	8.724098	0.000000	0.000000
Mo	10.905123	-2.184474	-2.184474
O	12.028954	-1.056150	-1.056150
O	7.666905	1.056150	-3.312798
O	9.781291	-1.056150	-3.312798
O	9.847930	1.128324	-1.128324
O	14.143340	1.056150	-1.056150
O	9.847930	3.240624	-3.240624
O	11.962315	3.240624	-1.128324
O	11.962315	1.128324	-3.240624
V	7.633586	-1.092237	-3.276711
V	11.995635	1.092237	-1.092237
V	14.176659	-1.092237	-1.092237
V	9.814610	1.092237	-3.276711
Mo	0.000000	-4.368948	-4.368948
Mo	2.181025	-6.553422	-6.553422
O	3.304856	-5.425098	-5.425098
O	-1.057193	-3.312798	-7.681746
O	1.057193	-5.425098	-7.681746
O	1.123832	-3.240624	-5.497272
O	5.419242	-3.312798	-5.425098
O	1.123832	-1.128324	-7.609572
O	3.238217	-1.128324	-5.497272
O	3.238217	-3.240624	-7.609572
V	-1.090512	-5.461185	-7.645659
V	3.271537	-3.276711	-5.461185
V	5.452561	-5.461185	-5.461185
V	1.090512	-3.276711	-7.645659
Mo	4.362049	0.000000	-4.368948
Mo	6.543074	-2.184474	-6.553422
O	7.666905	-1.056150	-5.425098
O	3.304856	1.056150	-7.681746
O	5.419242	-1.056150	-7.681746
O	5.485881	1.128324	-5.497272
O	9.781291	1.056150	-5.425098
O	5.485881	3.240624	-7.609572
O	7.600266	3.240624	-5.497272
O	7.600266	1.128324	-7.609572
V	3.271537	-1.092237	-7.645659
V	7.633586	1.092237	-5.461185
V	9.814610	-1.092237	-5.461185
V	5.452561	1.092237	-7.645659
