112

Cr	0.000000	0.000000	0.000000
Cr	2.406594	-2.414842	-2.414842
O	-1.104375	1.084414	-3.745271
O	3.708823	-1.084414	-1.084414
O	1.104375	-1.084414	-3.745271
O	1.302219	1.330428	-1.330428
O	5.917563	1.084414	-1.084414
O	1.302219	3.499266	-3.499266
O	3.510969	3.499266	-1.330428
O	3.510969	1.330428	-3.499266
Te	-1.203297	-1.207421	-3.622264
Te	3.609891	1.207421	-1.207421
Te	1.203297	1.207421	-3.622264
Te	6.016495	-1.207421	-1.207421
Cr	4.813194	4.829690	0.000000
Cr	7.219789	2.414847	-2.414842
O	3.708819	5.914104	-3.745271
O	8.522018	3.745276	-1.084414
O	5.917570	3.745276	-3.745271
O	6.115414	6.160118	-1.330428
O	10.730758	5.914104	-1.084414
O	6.115414	8.328956	-3.499266
O	8.324164	8.328956	-1.330428
O	8.324164	6.160118	-3.499266
Te	3.609897	3.622269	-3.622264
Te	8.423086	6.037111	-1.207421
Te	6.016492	6.037111	-3.622264
Te	10.829690	3.622269	-1.207421
Cr	-4.813194	0.000000	-4.829690
Cr	-2.406600	-2.414842	-7.244532
O	-5.917570	1.084414	-8.574961
O	-1.104371	-1.084414	-5.914104
O	-3.708819	-1.084414	-8.574961
O	-3.510975	1.330428	-6.160118
O	1.104369	1.084414	-5.914104
O	-3.510975	3.499266	-8.328956
O	-1.302225	3.499266	-6.160118
O	-1.302225	1.330428	-8.328956
Te	-6.016492	-1.207421	-8.451953
Te	-1.203303	1.207421	-6.037111
Te	-3.609897	1.207421	-8.451953
Te	1.203301	-1.207421	-6.037111
Cr	0.000000	4.829690	-4.829690
Cr	2.406594	2.414847	-7.244532
O	-1.104375	5.914104	-8.574961
O	3.708823	3.745276	-5.914104
O	1.104375	3.745276	-8.574961
O	1.302219	6.160118	-6.160118
O	5.917563	5.914104	-5.914104
O	1.302219	8.328956	-8.328956
O	3.510969	8.328956	-6.160118
O	3.510969	6.160118	-8.328956
Te	-1.203297	3.622269	-8.451953
Te	3.609891	6.037111	-6.037111
Te	1.203297	6.037111	-8.451953
Te	6.016495	3.622269	-6.037111
Cr	4.813194	-4.829690	0.000000
Cr	7.219789	-7.244532	-2.414842
O	3.708819	-3.745276	-3.745271
O	8.522018	-5.914104	-1.084414
O	5.917570	-5.914104	-3.745271
O	6.115414	-3.499261	-1.330428
O	10.730758	-3.745276	-1.084414
O	6.115414	-1.330424	-3.499266
O	8.324164	-1.330424	-1.330428
O	8.324164	-3.499261	-3.499266
Te	3.609897	-6.037111	-3.622264
Te	8.423086	-3.622269	-1.207421
Te	6.016492	-3.622269	-3.622264
Te	10.829690	-6.037111	-1.207421
Cr	9.626389	0.000000	0.000000
Cr	12.032983	-2.414842	-2.414842
O	8.522014	1.084414	-3.745271
O	13.335212	-1.084414	-1.084414
O	10.730764	-1.084414	-3.745271
O	10.928608	1.330428	-1.330428
O	15.543952	1.084414	-1.084414
O	10.928608	3.499266	-3.499266
O	13.137358	3.499266	-1.330428
O	13.137358	1.330428	-3.499266
Te	8.423092	-1.207421	-3.622264
Te	13.236280	1.207421	-1.207421
Te	10.829686	1.207421	-3.622264
Te	15.642884	-1.207421	-1.207421
Cr	0.000000	-4.829690	-4.829690
Cr	2.406594	-7.244532	-7.244532
O	-1.104375	-3.745276	-8.574961
O	3.708823	-5.914104	-5.914104
O	1.104375	-5.914104	-8.574961
O	1.302219	-3.499261	-6.160118
O	5.917563	-3.745276	-5.914104
O	1.302219	-1.330424	-8.328956
O	3.510969	-1.330424	-6.160118
O	3.510969	-3.499261	-8.328956
Te	-1.203297	-6.037111	-8.451953
Te	3.609891	-3.622269	-6.037111
Te	1.203297	-3.622269	-8.451953
Te	6.016495	-6.037111	-6.037111
Cr	4.813194	0.000000	-4.829690
Cr	7.219789	-2.414842	-7.244532
O	3.708819	1.084414	-8.574961
O	8.522018	-1.084414	-5.914104
O	5.917570	-1.084414	-8.574961
O	6.115414	1.330428	-6.160118
O	10.730758	1.084414	-5.914104
O	6.115414	3.499266	-8.328956
O	8.324164	3.499266	-6.160118
O	8.324164	1.330428	-8.328956
Te	3.609897	-1.207421	-8.451953
Te	8.423086	1.207421	-6.037111
Te	6.016492	1.207421	-8.451953
Te	10.829690	-1.207421	-6.037111
