40

B	1.721520	1.721520	1.721520
Ho_3	0.000000	0.000000	0.000000
O	1.721520	1.721520	0.000000
O	0.000000	1.721520	1.721520
O	1.721520	0.000000	1.721520
B	1.721520	1.721520	5.164562
Ho_3	0.000000	0.000000	3.443042
O	1.721520	1.721520	3.443042
O	0.000000	1.721520	5.164562
O	1.721520	0.000000	5.164562
B	1.721520	5.164562	1.721520
Ho_3	0.000000	3.443042	0.000000
O	1.721520	5.164562	0.000000
O	0.000000	5.164562	1.721520
O	1.721520	3.443042	1.721520
B	1.721520	5.164562	5.164562
Ho_3	0.000000	3.443042	3.443042
O	1.721520	5.164562	3.443042
O	0.000000	5.164562	5.164562
O	1.721520	3.443042	5.164562
B	5.164562	1.721520	1.721520
Ho_3	3.443042	0.000000	0.000000
O	5.164562	1.721520	0.000000
O	3.443042	1.721520	1.721520
O	5.164562	0.000000	1.721520
B	5.164562	1.721520	5.164562
Ho_3	3.443042	0.000000	3.443042
O	5.164562	1.721520	3.443042
O	3.443042	1.721520	5.164562
O	5.164562	0.000000	5.164562
B	5.164562	5.164562	1.721520
Ho_3	3.443042	3.443042	0.000000
O	5.164562	5.164562	0.000000
O	3.443042	5.164562	1.721520
O	5.164562	3.443042	1.721520
B	5.164562	5.164562	5.164562
Ho_3	3.443042	3.443042	3.443042
O	5.164562	5.164562	3.443042
O	3.443042	5.164562	5.164562
O	5.164562	3.443042	5.164562
