40

Ba	2.196753	2.196753	2.196753
Np	0.000000	0.000000	0.000000
O	2.196753	-0.015000	0.000000
O	0.000000	2.196753	0.000000
O	0.000000	0.000000	2.196753
Ba	2.196753	2.196753	6.590258
Np	0.000000	0.000000	4.393505
O	2.196753	-0.015000	4.393505
O	0.000000	2.196753	4.393505
O	0.000000	0.000000	6.590258
Ba	2.196753	6.590258	2.196753
Np	0.000000	4.393505	0.000000
O	2.196753	4.378505	0.000000
O	0.000000	6.590258	0.000000
O	0.000000	4.393505	2.196753
Ba	2.196753	6.590258	6.590258
Np	0.000000	4.393505	4.393505
O	2.196753	4.378505	4.393505
O	0.000000	6.590258	4.393505
O	0.000000	4.393505	6.590258
Ba	6.590258	2.196753	2.196753
Np	4.393505	0.000000	0.000000
O	6.590258	-0.015000	0.000000
O	4.393505	2.196753	0.000000
O	4.393505	0.000000	2.196753
Ba	6.590258	2.196753	6.590258
Np	4.393505	0.000000	4.393505
O	6.590258	-0.015000	4.393505
O	4.393505	2.196753	4.393505
O	4.393505	0.000000	6.590258
Ba	6.590258	6.590258	2.196753
Np	4.393505	4.393505	0.000000
O	6.590258	4.378505	0.000000
O	4.393505	6.590258	0.000000
O	4.393505	4.393505	2.196753
Ba	6.590258	6.590258	6.590258
Np	4.393505	4.393505	4.393505
O	6.590258	4.378505	4.393505
O	4.393505	6.590258	4.393505
O	4.393505	4.393505	6.590258
