40

Cu	0.000000	0.000000	0.000000
Gd	2.174351	2.174351	2.174351
O	2.174351	2.174351	0.000000
O	2.174351	0.000000	2.174351
O	0.000000	2.174351	2.174351
Cu	0.000000	0.000000	4.348708
Gd	2.174351	2.174351	6.523060
O	2.174351	2.174351	4.348708
O	2.174351	0.000000	6.523060
O	0.000000	2.174351	6.523060
Cu	0.000000	4.348708	0.000000
Gd	2.174351	6.523060	2.174351
O	2.174351	6.523060	0.000000
O	2.174351	4.348708	2.174351
O	0.000000	6.523060	2.174351
Cu	0.000000	4.348708	4.348708
Gd	2.174351	6.523060	6.523060
O	2.174351	6.523060	4.348708
O	2.174351	4.348708	6.523060
O	0.000000	6.523060	6.523060
Cu	4.348708	0.000000	0.000000
Gd	6.523060	2.174351	2.174351
O	6.523060	2.174351	0.000000
O	6.523060	0.000000	2.174351
O	4.348708	2.174351	2.174351
Cu	4.348708	0.000000	4.348708
Gd	6.523060	2.174351	6.523060
O	6.523060	2.174351	4.348708
O	6.523060	0.000000	6.523060
O	4.348708	2.174351	6.523060
Cu	4.348708	4.348708	0.000000
Gd	6.523060	6.523060	2.174351
O	6.523060	6.523060	0.000000
O	6.523060	4.348708	2.174351
O	4.348708	6.523060	2.174351
Cu	4.348708	4.348708	4.348708
Gd	6.523060	6.523060	6.523060
O	6.523060	6.523060	4.348708
O	6.523060	4.348708	6.523060
O	4.348708	6.523060	6.523060
