40

Mn	0.000000	0.000000	0.000000
Ni	1.845076	1.845076	1.845076
O	0.000000	1.845076	1.845076
O	1.845076	0.000000	1.845076
O	1.845076	1.845076	0.000000
Mn	0.000000	0.000000	3.690151
Ni	1.845076	1.845076	5.535227
O	0.000000	1.845076	5.535227
O	1.845076	0.000000	5.535227
O	1.845076	1.845076	3.690151
Mn	0.000000	3.690151	0.000000
Ni	1.845076	5.535227	1.845076
O	0.000000	5.535227	1.845076
O	1.845076	3.690151	1.845076
O	1.845076	5.535227	0.000000
Mn	0.000000	3.690151	3.690151
Ni	1.845076	5.535227	5.535227
O	0.000000	5.535227	5.535227
O	1.845076	3.690151	5.535227
O	1.845076	5.535227	3.690151
Mn	3.690151	0.000000	0.000000
Ni	5.535227	1.845076	1.845076
O	3.690151	1.845076	1.845076
O	5.535227	0.000000	1.845076
O	5.535227	1.845076	0.000000
Mn	3.690151	0.000000	3.690151
Ni	5.535227	1.845076	5.535227
O	3.690151	1.845076	5.535227
O	5.535227	0.000000	5.535227
O	5.535227	1.845076	3.690151
Mn	3.690151	3.690151	0.000000
Ni	5.535227	5.535227	1.845076
O	3.690151	5.535227	1.845076
O	5.535227	3.690151	1.845076
O	5.535227	5.535227	0.000000
Mn	3.690151	3.690151	3.690151
Ni	5.535227	5.535227	5.535227
O	3.690151	5.535227	5.535227
O	5.535227	3.690151	5.535227
O	5.535227	5.535227	3.690151
