112

Be	0.000000	0.000000	0.000000
Be	2.016052	-2.016445	-2.016445
O	3.008675	-1.023381	-1.023381
O	-1.023429	1.023381	-3.009510
O	1.023429	-1.023381	-3.009510
O	0.992623	0.993065	-0.993065
O	5.055532	1.023381	-1.023381
O	0.992623	3.039826	-3.039826
O	3.039480	3.039826	-0.993065
O	3.039480	0.993065	-3.039826
Si	-1.008026	-1.008223	-3.024668
Si	3.024078	1.008223	-1.008223
Si	5.040129	-1.008223	-1.008223
Si	1.008026	1.008223	-3.024668
Be	4.032103	4.032891	0.000000
Be	6.048155	2.016445	-2.016445
O	7.040778	3.009510	-1.023381
O	3.008675	5.056271	-3.009510
O	5.055532	3.009510	-3.009510
O	5.024726	5.025955	-0.993065
O	9.087635	5.056271	-1.023381
O	5.024726	7.072716	-3.039826
O	7.071584	7.072716	-0.993065
O	7.071584	5.025955	-3.039826
Si	3.024078	3.024668	-3.024668
Si	7.056181	5.041113	-1.008223
Si	9.072233	3.024668	-1.008223
Si	5.040129	5.041113	-3.024668
Be	-4.032103	0.000000	-4.032891
Be	-2.016052	-2.016445	-6.049336
O	-1.023429	-1.023381	-5.056271
O	-5.055532	1.023381	-7.042400
O	-3.008675	-1.023381	-7.042400
O	-3.039480	0.993065	-5.025955
O	1.023429	1.023381	-5.056271
O	-3.039480	3.039826	-7.072716
O	-0.992623	3.039826	-5.025955
O	-0.992623	0.993065	-7.072716
Si	-5.040129	-1.008223	-7.057558
Si	-1.008026	1.008223	-5.041113
Si	1.008026	-1.008223	-5.041113
Si	-3.024078	1.008223	-7.057558
Be	0.000000	4.032891	-4.032891
Be	2.016052	2.016445	-6.049336
O	3.008675	3.009510	-5.056271
O	-1.023429	5.056271	-7.042400
O	1.023429	3.009510	-7.042400
O	0.992623	5.025955	-5.025955
O	5.055532	5.056271	-5.056271
O	0.992623	7.072716	-7.072716
O	3.039480	7.072716	-5.025955
O	3.039480	5.025955	-7.072716
Si	-1.008026	3.024668	-7.057558
Si	3.024078	5.041113	-5.041113
Si	5.040129	3.024668	-5.041113
Si	1.008026	5.041113	-7.057558
Be	4.032103	-4.032891	0.000000
Be	6.048155	-6.049336	-2.016445
O	7.040778	-5.056271	-1.023381
O	3.008675	-3.009510	-3.009510
O	5.055532	-5.056271	-3.009510
O	5.024726	-3.039826	-0.993065
O	9.087635	-3.009510	-1.023381
O	5.024726	-0.993065	-3.039826
O	7.071584	-0.993065	-0.993065
O	7.071584	-3.039826	-3.039826
Si	3.024078	-5.041113	-3.024668
Si	7.056181	-3.024668	-1.008223
Si	9.072233	-5.041113	-1.008223
Si	5.040129	-3.024668	-3.024668
Be	8.064207	0.000000	0.000000
Be	10.080258	-2.016445	-2.016445
O	11.072882	-1.023381	-1.023381
O	7.040778	1.023381	-3.009510
O	9.087635	-1.023381	-3.009510
O	9.056830	0.993065	-0.993065
O	13.119739	1.023381	-1.023381
O	9.056830	3.039826	-3.039826
O	11.103687	3.039826	-0.993065
O	11.103687	0.993065	-3.039826
Si	7.056181	-1.008223	-3.024668
Si	11.088284	1.008223	-1.008223
Si	13.104336	-1.008223	-1.008223
Si	9.072233	1.008223	-3.024668
Be	0.000000	-4.032891	-4.032891
Be	2.016052	-6.049336	-6.049336
O	3.008675	-5.056271	-5.056271
O	-1.023429	-3.009510	-7.042400
O	1.023429	-5.056271	-7.042400
O	0.992623	-3.039826	-5.025955
O	5.055532	-3.009510	-5.056271
O	0.992623	-0.993065	-7.072716
O	3.039480	-0.993065	-5.025955
O	3.039480	-3.039826	-7.072716
Si	-1.008026	-5.041113	-7.057558
Si	3.024078	-3.024668	-5.041113
Si	5.040129	-5.041113	-5.041113
Si	1.008026	-3.024668	-7.057558
Be	4.032103	0.000000	-4.032891
Be	6.048155	-2.016445	-6.049336
O	7.040778	-1.023381	-5.056271
O	3.008675	1.023381	-7.042400
O	5.055532	-1.023381	-7.042400
O	5.024726	0.993065	-5.025955
O	9.087635	1.023381	-5.056271
O	5.024726	3.039826	-7.072716
O	7.071584	3.039826	-5.025955
O	7.071584	0.993065	-7.072716
Si	3.024078	-1.008223	-7.057558
Si	7.056181	1.008223	-5.041113
Si	9.072233	-1.008223	-5.041113
Si	5.040129	1.008223	-7.057558
