112

Cs	0.000000	0.000000	0.000000
Cs	2.431445	-2.436379	-2.436379
Na	-1.215722	-1.218189	-3.654568
Na	3.647167	1.218189	-1.218189
Na	6.078612	-1.218189	-1.218189
Na	1.215722	1.218189	-3.654568
O	3.672633	-1.190764	-1.190764
O	-1.190257	1.190764	-3.681993
O	1.190257	-1.190764	-3.681993
O	1.241188	1.245614	-1.245614
O	6.053146	1.190764	-1.190764
O	1.241188	3.627143	-3.627143
O	3.621702	3.627143	-1.245614
O	3.621702	1.245614	-3.627143
Cs	4.862889	4.872757	0.000000
Cs	7.294334	2.436379	-2.436379
Na	3.647167	3.654568	-3.654568
Na	8.510057	6.090947	-1.218189
Na	10.941501	3.654568	-1.218189
Na	6.078612	6.090947	-3.654568
O	8.535522	3.681993	-1.190764
O	3.672633	6.063522	-3.681993
O	6.053146	3.681993	-3.681993
O	6.104077	6.118371	-1.245614
O	10.916036	6.063522	-1.190764
O	6.104077	8.499900	-3.627143
O	8.484591	8.499900	-1.245614
O	8.484591	6.118371	-3.627143
Cs	-4.862889	0.000000	-4.872757
Cs	-2.431445	-2.436379	-7.309136
Na	-6.078612	-1.218189	-8.527325
Na	-1.215722	1.218189	-6.090947
Na	1.215722	-1.218189	-6.090947
Na	-3.647167	1.218189	-8.527325
O	-1.190257	-1.190764	-6.063522
O	-6.053146	1.190764	-8.554750
O	-3.672633	-1.190764	-8.554750
O	-3.621702	1.245614	-6.118371
O	1.190257	1.190764	-6.063522
O	-3.621702	3.627143	-8.499900
O	-1.241188	3.627143	-6.118371
O	-1.241188	1.245614	-8.499900
Cs	0.000000	4.872757	-4.872757
Cs	2.431445	2.436379	-7.309136
Na	-1.215722	3.654568	-8.527325
Na	3.647167	6.090947	-6.090947
Na	6.078612	3.654568	-6.090947
Na	1.215722	6.090947	-8.527325
O	3.672633	3.681993	-6.063522
O	-1.190257	6.063522	-8.554750
O	1.190257	3.681993	-8.554750
O	1.241188	6.118371	-6.118371
O	6.053146	6.063522	-6.063522
O	1.241188	8.499900	-8.499900
O	3.621702	8.499900	-6.118371
O	3.621702	6.118371	-8.499900
Cs	4.862889	-4.872757	0.000000
Cs	7.294334	-7.309136	-2.436379
Na	3.647167	-6.090947	-3.654568
Na	8.510057	-3.654568	-1.218189
Na	10.941501	-6.090947	-1.218189
Na	6.078612	-3.654568	-3.654568
O	8.535522	-6.063522	-1.190764
O	3.672633	-3.681993	-3.681993
O	6.053146	-6.063522	-3.681993
O	6.104077	-3.627143	-1.245614
O	10.916036	-3.681993	-1.190764
O	6.104077	-1.245614	-3.627143
O	8.484591	-1.245614	-1.245614
O	8.484591	-3.627143	-3.627143
Cs	9.725779	0.000000	0.000000
Cs	12.157224	-2.436379	-2.436379
Na	8.510057	-1.218189	-3.654568
Na	13.372946	1.218189	-1.218189
Na	15.804391	-1.218189	-1.218189
Na	10.941501	1.218189	-3.654568
O	13.398412	-1.190764	-1.190764
O	8.535522	1.190764	-3.681993
O	10.916036	-1.190764	-3.681993
O	10.966967	1.245614	-1.245614
O	15.778925	1.190764	-1.190764
O	10.966967	3.627143	-3.627143
O	13.347481	3.627143	-1.245614
O	13.347481	1.245614	-3.627143
Cs	0.000000	-4.872757	-4.872757
Cs	2.431445	-7.309136	-7.309136
Na	-1.215722	-6.090947	-8.527325
Na	3.647167	-3.654568	-6.090947
Na	6.078612	-6.090947	-6.090947
Na	1.215722	-3.654568	-8.527325
O	3.672633	-6.063522	-6.063522
O	-1.190257	-3.681993	-8.554750
O	1.190257	-6.063522	-8.554750
O	1.241188	-3.627143	-6.118371
O	6.053146	-3.681993	-6.063522
O	1.241188	-1.245614	-8.499900
O	3.621702	-1.245614	-6.118371
O	3.621702	-3.627143	-8.499900
Cs	4.862889	0.000000	-4.872757
Cs	7.294334	-2.436379	-7.309136
Na	3.647167	-1.218189	-8.527325
Na	8.510057	1.218189	-6.090947
Na	10.941501	-1.218189	-6.090947
Na	6.078612	1.218189	-8.527325
O	8.535522	-1.190764	-6.063522
O	3.672633	1.190764	-8.554750
O	6.053146	-1.190764	-8.554750
O	6.104077	1.245614	-6.118371
O	10.916036	1.190764	-6.063522
O	6.104077	3.627143	-8.499900
O	8.484591	3.627143	-6.118371
O	8.484591	1.245614	-8.499900
