40

K	0.000000	0.000000	0.000000
Na	2.220822	2.220822	2.220822
O	0.000000	2.220822	2.220822
O	2.220822	0.000000	2.220822
O	2.220822	2.220822	0.000000
K	0.000000	0.000000	4.441643
Na	2.220822	2.220822	6.662465
O	0.000000	2.220822	6.662465
O	2.220822	0.000000	6.662465
O	2.220822	2.220822	4.441643
K	0.000000	4.441643	0.000000
Na	2.220822	6.662465	2.220822
O	0.000000	6.662465	2.220822
O	2.220822	4.441643	2.220822
O	2.220822	6.662465	0.000000
K	0.000000	4.441643	4.441643
Na	2.220822	6.662465	6.662465
O	0.000000	6.662465	6.662465
O	2.220822	4.441643	6.662465
O	2.220822	6.662465	4.441643
K	4.441643	0.000000	0.000000
Na	6.662465	2.220822	2.220822
O	4.441643	2.220822	2.220822
O	6.662465	0.000000	2.220822
O	6.662465	2.220822	0.000000
K	4.441643	0.000000	4.441643
Na	6.662465	2.220822	6.662465
O	4.441643	2.220822	6.662465
O	6.662465	0.000000	6.662465
O	6.662465	2.220822	4.441643
K	4.441643	4.441643	0.000000
Na	6.662465	6.662465	2.220822
O	4.441643	6.662465	2.220822
O	6.662465	4.441643	2.220822
O	6.662465	6.662465	0.000000
K	4.441643	4.441643	4.441643
Na	6.662465	6.662465	6.662465
O	4.441643	6.662465	6.662465
O	6.662465	4.441643	6.662465
O	6.662465	6.662465	4.441643
