40

B	1.719986	1.719986	1.719986
O	0.000000	1.719986	1.719986
O	1.719986	0.000000	1.719986
O	1.719986	1.719986	0.000000
Ta	0.000000	0.000000	0.000000
B	1.719986	1.719986	5.159959
O	0.000000	1.719986	5.159959
O	1.719986	0.000000	5.159959
O	1.719986	1.719986	3.439973
Ta	0.000000	0.000000	3.439973
B	1.719986	5.159959	1.719986
O	0.000000	5.159959	1.719986
O	1.719986	3.439973	1.719986
O	1.719986	5.159959	0.000000
Ta	0.000000	3.439973	0.000000
B	1.719986	5.159959	5.159959
O	0.000000	5.159959	5.159959
O	1.719986	3.439973	5.159959
O	1.719986	5.159959	3.439973
Ta	0.000000	3.439973	3.439973
B	5.159959	1.719986	1.719986
O	3.439973	1.719986	1.719986
O	5.159959	0.000000	1.719986
O	5.159959	1.719986	0.000000
Ta	3.439973	0.000000	0.000000
B	5.159959	1.719986	5.159959
O	3.439973	1.719986	5.159959
O	5.159959	0.000000	5.159959
O	5.159959	1.719986	3.439973
Ta	3.439973	0.000000	3.439973
B	5.159959	5.159959	1.719986
O	3.439973	5.159959	1.719986
O	5.159959	3.439973	1.719986
O	5.159959	5.159959	0.000000
Ta	3.439973	3.439973	0.000000
B	5.159959	5.159959	5.159959
O	3.439973	5.159959	5.159959
O	5.159959	3.439973	5.159959
O	5.159959	5.159959	3.439973
Ta	3.439973	3.439973	3.439973
