112

O	5.504420	3.892213	9.533935
O	1.892779	1.338397	6.330854
O	2.773950	3.830724	4.804621
O	4.536291	1.338397	4.804621
O	4.623249	1.399886	8.007703
O	2.860908	3.892213	8.007703
O	1.892779	1.338397	3.278389
O	5.504420	3.892213	6.481470
Mg	0.924650	0.653826	1.601541
Mg	6.472549	4.576783	11.210784
In	3.698599	2.615305	3.203081
In	3.698599	2.615305	6.406162
In	0.924650	2.615305	4.804621
In	2.773950	0.000000	4.804621
O	5.504420	3.892213	15.940097
O	1.892779	1.338397	12.737016
O	2.773950	3.830724	11.210783
O	4.536291	1.338397	11.210783
O	4.623249	1.399886	14.413865
O	2.860908	3.892213	14.413865
O	1.892779	1.338397	9.684551
O	5.504420	3.892213	12.887632
Mg	0.924650	0.653826	8.007703
Mg	6.472549	4.576783	17.616945
In	3.698599	2.615305	9.609243
In	3.698599	2.615305	12.812324
In	0.924650	2.615305	11.210783
In	2.773950	0.000000	11.210783
O	7.353720	9.122822	12.737016
O	3.742079	6.569006	9.533935
O	4.623249	9.061333	8.007703
O	6.385591	6.569006	8.007703
O	6.472549	6.630495	11.210784
O	4.710208	9.122822	11.210784
O	3.742079	6.569006	6.481470
O	7.353720	9.122822	9.684551
Mg	2.773950	5.884436	4.804621
Mg	8.321849	9.807393	14.413865
In	5.547899	7.845914	6.406162
In	5.547899	7.845914	9.609243
In	2.773950	7.845914	8.007703
In	4.623249	5.230609	8.007703
O	7.353720	9.122822	19.143178
O	3.742079	6.569006	15.940097
O	4.623249	9.061333	14.413865
O	6.385591	6.569006	14.413865
O	6.472549	6.630495	17.616945
O	4.710208	9.122822	17.616945
O	3.742079	6.569006	12.887632
O	7.353720	9.122822	16.090713
Mg	2.773950	5.884436	11.210783
Mg	8.321849	9.807393	20.820027
In	5.547899	7.845914	12.812324
In	5.547899	7.845914	16.015405
In	2.773950	7.845914	14.413865
In	4.623249	5.230609	14.413865
O	11.052319	3.892213	12.737016
O	7.440678	1.338397	9.533935
O	8.321849	3.830724	8.007703
O	10.084190	1.338397	8.007703
O	10.171148	1.399886	11.210784
O	8.408807	3.892213	11.210784
O	7.440678	1.338397	6.481470
O	11.052319	3.892213	9.684551
Mg	6.472549	0.653826	4.804621
Mg	12.020448	4.576783	14.413865
In	9.246498	2.615305	6.406162
In	9.246498	2.615305	9.609243
In	6.472549	2.615305	8.007703
In	8.321849	0.000000	8.007703
O	11.052319	3.892213	19.143178
O	7.440678	1.338397	15.940097
O	8.321849	3.830724	14.413865
O	10.084190	1.338397	14.413865
O	10.171148	1.399886	17.616945
O	8.408807	3.892213	17.616945
O	7.440678	1.338397	12.887632
O	11.052319	3.892213	16.090713
Mg	6.472549	0.653826	11.210783
Mg	12.020448	4.576783	20.820027
In	9.246498	2.615305	12.812324
In	9.246498	2.615305	16.015405
In	6.472549	2.615305	14.413865
In	8.321849	0.000000	14.413865
O	12.901619	9.122822	15.940097
O	9.289978	6.569006	12.737016
O	10.171148	9.061333	11.210784
O	11.933490	6.569006	11.210784
O	12.020448	6.630495	14.413865
O	10.258107	9.122822	14.413865
O	9.289978	6.569006	9.684551
O	12.901619	9.122822	12.887632
Mg	8.321849	5.884436	8.007703
Mg	13.869748	9.807393	17.616946
In	11.095798	7.845914	9.609243
In	11.095798	7.845914	12.812324
In	8.321849	7.845914	11.210784
In	10.171148	5.230609	11.210784
O	12.901619	9.122822	22.346259
O	9.289978	6.569006	19.143178
O	10.171148	9.061333	17.616945
O	11.933490	6.569006	17.616945
O	12.020448	6.630495	20.820027
O	10.258107	9.122822	20.820027
O	9.289978	6.569006	16.090713
O	12.901619	9.122822	19.293794
Mg	8.321849	5.884436	14.413865
Mg	13.869748	9.807393	24.023108
In	11.095798	7.845914	16.015405
In	11.095798	7.845914	19.218486
In	8.321849	7.845914	17.616945
In	10.171148	5.230609	17.616945
