40

Ba	0.000000	0.000000	0.000000
O	0.000000	2.048009	2.048009
O	2.048009	0.000000	2.048009
O	2.048009	2.048009	0.000000
W	2.048009	2.048009	2.048009
Ba	0.000000	0.000000	4.096018
O	0.000000	2.048009	6.144027
O	2.048009	0.000000	6.144027
O	2.048009	2.048009	4.096018
W	2.048009	2.048009	6.144027
Ba	0.000000	4.096018	0.000000
O	0.000000	6.144027	2.048009
O	2.048009	4.096018	2.048009
O	2.048009	6.144027	0.000000
W	2.048009	6.144027	2.048009
Ba	0.000000	4.096018	4.096018
O	0.000000	6.144027	6.144027
O	2.048009	4.096018	6.144027
O	2.048009	6.144027	4.096018
W	2.048009	6.144027	6.144027
Ba	4.096018	0.000000	0.000000
O	4.096018	2.048009	2.048009
O	6.144027	0.000000	2.048009
O	6.144027	2.048009	0.000000
W	6.144027	2.048009	2.048009
Ba	4.096018	0.000000	4.096018
O	4.096018	2.048009	6.144027
O	6.144027	0.000000	6.144027
O	6.144027	2.048009	4.096018
W	6.144027	2.048009	6.144027
Ba	4.096018	4.096018	0.000000
O	4.096018	6.144027	2.048009
O	6.144027	4.096018	2.048009
O	6.144027	6.144027	0.000000
W	6.144027	6.144027	2.048009
Ba	4.096018	4.096018	4.096018
O	4.096018	6.144027	6.144027
O	6.144027	4.096018	6.144027
O	6.144027	6.144027	4.096018
W	6.144027	6.144027	6.144027
