112

O	3.802577	-1.158025	-1.158025
O	-1.158604	1.158025	-3.803853
O	1.158604	-1.158025	-3.803853
O	1.321987	1.322914	-1.322914
O	6.119785	1.158025	-1.158025
O	1.321987	3.638964	-3.638964
O	3.639195	3.638964	-1.322914
O	3.639195	1.322914	-3.638964
Pr	0.000000	0.000000	0.000000
Pr	2.480591	-2.480939	-2.480939
Tl	-1.240295	-1.240469	-3.721408
Tl	3.720886	1.240469	-1.240469
Tl	6.201477	-1.240469	-1.240469
Tl	1.240295	1.240469	-3.721408
O	8.763759	3.803853	-1.158025
O	3.802577	6.119903	-3.803853
O	6.119785	3.803853	-3.803853
O	6.283168	6.284791	-1.322914
O	11.080967	6.119903	-1.158025
O	6.283168	8.600842	-3.638964
O	8.600376	8.600842	-1.322914
O	8.600376	6.284791	-3.638964
Pr	4.961181	4.961878	0.000000
Pr	7.441772	2.480939	-2.480939
Tl	3.720886	3.721408	-3.721408
Tl	8.682067	6.202347	-1.240469
Tl	11.162658	3.721408	-1.240469
Tl	6.201477	6.202347	-3.721408
O	-1.158604	-1.158025	-6.119903
O	-6.119785	1.158025	-8.765730
O	-3.802577	-1.158025	-8.765730
O	-3.639195	1.322914	-6.284791
O	1.158604	1.158025	-6.119903
O	-3.639195	3.638964	-8.600842
O	-1.321987	3.638964	-6.284791
O	-1.321987	1.322914	-8.600842
Pr	-4.961181	0.000000	-4.961878
Pr	-2.480591	-2.480939	-7.442817
Tl	-6.201477	-1.240469	-8.683286
Tl	-1.240295	1.240469	-6.202347
Tl	1.240295	-1.240469	-6.202347
Tl	-3.720886	1.240469	-8.683286
O	3.802577	3.803853	-6.119903
O	-1.158604	6.119903	-8.765730
O	1.158604	3.803853	-8.765730
O	1.321987	6.284791	-6.284791
O	6.119785	6.119903	-6.119903
O	1.321987	8.600842	-8.600842
O	3.639195	8.600842	-6.284791
O	3.639195	6.284791	-8.600842
Pr	0.000000	4.961878	-4.961878
Pr	2.480591	2.480939	-7.442817
Tl	-1.240295	3.721408	-8.683286
Tl	3.720886	6.202347	-6.202347
Tl	6.201477	3.721408	-6.202347
Tl	1.240295	6.202347	-8.683286
O	8.763759	-6.119903	-1.158025
O	3.802577	-3.803853	-3.803853
O	6.119785	-6.119903	-3.803853
O	6.283168	-3.638964	-1.322914
O	11.080967	-3.803853	-1.158025
O	6.283168	-1.322914	-3.638964
O	8.600376	-1.322914	-1.322914
O	8.600376	-3.638964	-3.638964
Pr	4.961181	-4.961878	0.000000
Pr	7.441772	-7.442817	-2.480939
Tl	3.720886	-6.202347	-3.721408
Tl	8.682067	-3.721408	-1.240469
Tl	11.162658	-6.202347	-1.240469
Tl	6.201477	-3.721408	-3.721408
O	13.724940	-1.158025	-1.158025
O	8.763759	1.158025	-3.803853
O	11.080967	-1.158025	-3.803853
O	11.244349	1.322914	-1.322914
O	16.042148	1.158025	-1.158025
O	11.244349	3.638964	-3.638964
O	13.561558	3.638964	-1.322914
O	13.561558	1.322914	-3.638964
Pr	9.922363	0.000000	0.000000
Pr	12.402953	-2.480939	-2.480939
Tl	8.682067	-1.240469	-3.721408
Tl	13.643249	1.240469	-1.240469
Tl	16.123840	-1.240469	-1.240469
Tl	11.162658	1.240469	-3.721408
O	3.802577	-6.119903	-6.119903
O	-1.158604	-3.803853	-8.765730
O	1.158604	-6.119903	-8.765730
O	1.321987	-3.638964	-6.284791
O	6.119785	-3.803853	-6.119903
O	1.321987	-1.322914	-8.600842
O	3.639195	-1.322914	-6.284791
O	3.639195	-3.638964	-8.600842
Pr	0.000000	-4.961878	-4.961878
Pr	2.480591	-7.442817	-7.442817
Tl	-1.240295	-6.202347	-8.683286
Tl	3.720886	-3.721408	-6.202347
Tl	6.201477	-6.202347	-6.202347
Tl	1.240295	-3.721408	-8.683286
O	8.763759	-1.158025	-6.119903
O	3.802577	1.158025	-8.765730
O	6.119785	-1.158025	-8.765730
O	6.283168	1.322914	-6.284791
O	11.080967	1.158025	-6.119903
O	6.283168	3.638964	-8.600842
O	8.600376	3.638964	-6.284791
O	8.600376	1.322914	-8.600842
Pr	4.961181	0.000000	-4.961878
Pr	7.441772	-2.480939	-7.442817
Tl	3.720886	-1.240469	-8.683286
Tl	8.682067	1.240469	-6.202347
Tl	11.162658	-1.240469	-6.202347
Tl	6.201477	1.240469	-8.683286
