40

Mo	1.950900	1.950900	1.950900
O	1.950900	1.950900	0.000000
O	0.000000	1.950900	1.950900
O	1.950900	0.000000	1.950900
Ru	0.000000	0.000000	0.000000
Mo	1.950900	1.950900	5.852707
O	1.950900	1.950900	3.901807
O	0.000000	1.950900	5.852707
O	1.950900	0.000000	5.852707
Ru	0.000000	0.000000	3.901807
Mo	1.950900	5.852707	1.950900
O	1.950900	5.852707	0.000000
O	0.000000	5.852707	1.950900
O	1.950900	3.901807	1.950900
Ru	0.000000	3.901807	0.000000
Mo	1.950900	5.852707	5.852707
O	1.950900	5.852707	3.901807
O	0.000000	5.852707	5.852707
O	1.950900	3.901807	5.852707
Ru	0.000000	3.901807	3.901807
Mo	5.852707	1.950900	1.950900
O	5.852707	1.950900	0.000000
O	3.901807	1.950900	1.950900
O	5.852707	0.000000	1.950900
Ru	3.901807	0.000000	0.000000
Mo	5.852707	1.950900	5.852707
O	5.852707	1.950900	3.901807
O	3.901807	1.950900	5.852707
O	5.852707	0.000000	5.852707
Ru	3.901807	0.000000	3.901807
Mo	5.852707	5.852707	1.950900
O	5.852707	5.852707	0.000000
O	3.901807	5.852707	1.950900
O	5.852707	3.901807	1.950900
Ru	3.901807	3.901807	0.000000
Mo	5.852707	5.852707	5.852707
O	5.852707	5.852707	3.901807
O	3.901807	5.852707	5.852707
O	5.852707	3.901807	5.852707
Ru	3.901807	3.901807	3.901807
