112

Cr	0.000000	0.000000	0.000000
Cr	0.000000	2.185757	2.185757
Cr	2.185757	2.185757	0.000000
Cr	2.185757	0.000000	2.185757
Hg	3.278635	-1.092878	-1.092878
Hg	1.092878	1.092878	5.464391
O	0.177812	0.177813	2.007944
O	0.177812	-2.363569	4.549326
O	2.007944	0.177813	0.177812
O	2.363569	-2.007944	2.363569
O	2.007944	2.007944	2.007944
O	2.363569	-0.177813	4.193701
O	4.193701	2.363569	-0.177813
O	4.193701	-0.177813	2.363569
Cr	0.000000	4.371513	4.371513
Cr	0.000000	6.557270	6.557270
Cr	2.185757	6.557270	4.371513
Cr	2.185757	4.371513	6.557270
Hg	3.278635	3.278635	3.278635
Hg	1.092878	5.464391	9.835905
O	0.177812	4.549326	6.379457
O	0.177812	2.007944	8.920839
O	2.007944	4.549326	4.549326
O	2.363569	2.363569	6.735082
O	2.007944	6.379457	6.379457
O	2.363569	4.193701	8.565214
O	4.193701	6.735082	4.193701
O	4.193701	4.193701	6.735082
Cr	4.371513	0.000000	-4.371513
Cr	4.371513	2.185757	-2.185757
Cr	6.557270	2.185757	-4.371513
Cr	6.557270	0.000000	-2.185757
Hg	7.650148	-1.092878	-5.464391
Hg	5.464391	1.092878	1.092878
O	4.549326	0.177813	-2.363569
O	4.549326	-2.363569	0.177813
O	6.379457	0.177813	-4.193701
O	6.735082	-2.007944	-2.007944
O	6.379457	2.007944	-2.363569
O	6.735082	-0.177813	-0.177812
O	8.565214	2.363569	-4.549326
O	8.565214	-0.177813	-2.007944
Cr	4.371513	4.371513	0.000000
Cr	4.371513	6.557270	2.185757
Cr	6.557270	6.557270	0.000000
Cr	6.557270	4.371513	2.185757
Hg	7.650148	3.278635	-1.092878
Hg	5.464391	5.464391	5.464391
O	4.549326	4.549326	2.007944
O	4.549326	2.007944	4.549326
O	6.379457	4.549326	0.177812
O	6.735082	2.363569	2.363569
O	6.379457	6.379457	2.007944
O	6.735082	4.193701	4.193701
O	8.565214	6.735082	-0.177813
O	8.565214	4.193701	2.363569
Cr	0.000000	-4.371513	4.371513
Cr	0.000000	-2.185757	6.557270
Cr	2.185757	-2.185757	4.371513
Cr	2.185757	-4.371513	6.557270
Hg	3.278635	-5.464391	3.278635
Hg	1.092878	-3.278635	9.835905
O	0.177812	-4.193701	6.379457
O	0.177812	-6.735082	8.920839
O	2.007944	-4.193701	4.549326
O	2.363569	-6.379457	6.735082
O	2.007944	-2.363569	6.379457
O	2.363569	-4.549326	8.565214
O	4.193701	-2.007944	4.193701
O	4.193701	-4.549326	6.735082
Cr	0.000000	0.000000	8.743026
Cr	0.000000	2.185757	10.928783
Cr	2.185757	2.185757	8.743026
Cr	2.185757	0.000000	10.928783
Hg	3.278635	-1.092878	7.650148
Hg	1.092878	1.092878	14.207418
O	0.177812	0.177813	10.750970
O	0.177812	-2.363569	13.292352
O	2.007944	0.177813	8.920839
O	2.363569	-2.007944	11.106595
O	2.007944	2.007944	10.750970
O	2.363569	-0.177813	12.936727
O	4.193701	2.363569	8.565214
O	4.193701	-0.177813	11.106595
Cr	4.371513	-4.371513	0.000000
Cr	4.371513	-2.185757	2.185757
Cr	6.557270	-2.185757	0.000000
Cr	6.557270	-4.371513	2.185757
Hg	7.650148	-5.464391	-1.092878
Hg	5.464391	-3.278635	5.464391
O	4.549326	-4.193701	2.007944
O	4.549326	-6.735082	4.549326
O	6.379457	-4.193701	0.177812
O	6.735082	-6.379457	2.363569
O	6.379457	-2.363569	2.007944
O	6.735082	-4.549326	4.193701
O	8.565214	-2.007944	-0.177813
O	8.565214	-4.549326	2.363569
Cr	4.371513	0.000000	4.371513
Cr	4.371513	2.185757	6.557270
Cr	6.557270	2.185757	4.371513
Cr	6.557270	0.000000	6.557270
Hg	7.650148	-1.092878	3.278635
Hg	5.464391	1.092878	9.835905
O	4.549326	0.177813	6.379457
O	4.549326	-2.363569	8.920839
O	6.379457	0.177813	4.549326
O	6.735082	-2.007944	6.735082
O	6.379457	2.007944	6.379457
O	6.735082	-0.177813	8.565214
O	8.565214	2.363569	4.193701
O	8.565214	-0.177813	6.735082
