40

Cs	0.000000	0.000000	0.000000
O	2.208099	2.208099	0.000000
O	2.208099	0.000000	2.208099
O	0.000000	2.208099	2.208099
Pb	2.208099	2.208099	2.208099
Cs	0.000000	0.000000	4.416200
O	2.208099	2.208099	4.416200
O	2.208099	0.000000	6.624299
O	0.000000	2.208099	6.624299
Pb	2.208099	2.208099	6.624299
Cs	0.000000	4.416200	0.000000
O	2.208099	6.624299	0.000000
O	2.208099	4.416200	2.208099
O	0.000000	6.624299	2.208099
Pb	2.208099	6.624299	2.208099
Cs	0.000000	4.416200	4.416200
O	2.208099	6.624299	4.416200
O	2.208099	4.416200	6.624299
O	0.000000	6.624299	6.624299
Pb	2.208099	6.624299	6.624299
Cs	4.416200	0.000000	0.000000
O	6.624299	2.208099	0.000000
O	6.624299	0.000000	2.208099
O	4.416200	2.208099	2.208099
Pb	6.624299	2.208099	2.208099
Cs	4.416200	0.000000	4.416200
O	6.624299	2.208099	4.416200
O	6.624299	0.000000	6.624299
O	4.416200	2.208099	6.624299
Pb	6.624299	2.208099	6.624299
Cs	4.416200	4.416200	0.000000
O	6.624299	6.624299	0.000000
O	6.624299	4.416200	2.208099
O	4.416200	6.624299	2.208099
Pb	6.624299	6.624299	2.208099
Cs	4.416200	4.416200	4.416200
O	6.624299	6.624299	4.416200
O	6.624299	4.416200	6.624299
O	4.416200	6.624299	6.624299
Pb	6.624299	6.624299	6.624299
