112

Hf	0.000000	0.000000	0.000000
Hf	2.171029	-2.171113	-2.171113
O	-1.037655	1.037152	-3.305073
O	3.304403	-1.037152	-1.037152
O	1.037655	-1.037152	-3.305073
O	1.133374	1.133961	-1.133961
O	5.379713	1.037152	-1.037152
O	1.133374	3.208265	-3.208265
O	3.208684	3.208265	-1.133961
O	3.208684	1.133961	-3.208265
Zn	-1.085515	-1.085556	-3.256669
Zn	1.085515	1.085556	-3.256669
Zn	3.256544	1.085556	-1.085556
Zn	5.427573	-1.085556	-1.085556
Hf	4.342056	4.342226	0.000000
Hf	6.513085	2.171113	-2.171113
O	3.304401	5.379378	-3.305073
O	7.646459	3.305074	-1.037152
O	5.379711	3.305074	-3.305073
O	5.475430	5.476187	-1.133961
O	9.721769	5.379378	-1.037152
O	5.475430	7.550491	-3.208265
O	7.550740	7.550491	-1.133961
O	7.550740	5.476187	-3.208265
Zn	3.256541	3.256670	-3.256669
Zn	5.427570	5.427782	-3.256669
Zn	7.598599	5.427782	-1.085556
Zn	9.769628	3.256670	-1.085556
Hf	-4.342056	0.000000	-4.342226
Hf	-2.171027	-2.171113	-6.513339
O	-5.379711	1.037152	-7.647299
O	-1.037653	-1.037152	-5.379378
O	-3.304401	-1.037152	-7.647299
O	-3.208682	1.133961	-5.476187
O	1.037657	1.037152	-5.379378
O	-3.208682	3.208265	-7.550491
O	-1.133372	3.208265	-5.476187
O	-1.133372	1.133961	-7.550491
Zn	-5.427570	-1.085556	-7.598895
Zn	-3.256541	1.085556	-7.598895
Zn	-1.085512	1.085556	-5.427782
Zn	1.085517	-1.085556	-5.427782
Hf	0.000000	4.342226	-4.342226
Hf	2.171029	2.171113	-6.513339
O	-1.037655	5.379378	-7.647299
O	3.304403	3.305074	-5.379378
O	1.037655	3.305074	-7.647299
O	1.133374	5.476187	-5.476187
O	5.379713	5.379378	-5.379378
O	1.133374	7.550491	-7.550491
O	3.208684	7.550491	-5.476187
O	3.208684	5.476187	-7.550491
Zn	-1.085515	3.256670	-7.598895
Zn	1.085515	5.427782	-7.598895
Zn	3.256544	5.427782	-5.427782
Zn	5.427573	3.256670	-5.427782
Hf	4.342056	-4.342226	0.000000
Hf	6.513085	-6.513339	-2.171113
O	3.304401	-3.305074	-3.305073
O	7.646459	-5.379378	-1.037152
O	5.379711	-5.379378	-3.305073
O	5.475430	-3.208265	-1.133961
O	9.721769	-3.305074	-1.037152
O	5.475430	-1.133961	-3.208265
O	7.550740	-1.133961	-1.133961
O	7.550740	-3.208265	-3.208265
Zn	3.256541	-5.427782	-3.256669
Zn	5.427570	-3.256670	-3.256669
Zn	7.598599	-3.256670	-1.085556
Zn	9.769628	-5.427782	-1.085556
Hf	8.684112	0.000000	0.000000
Hf	10.855141	-2.171113	-2.171113
O	7.646456	1.037152	-3.305073
O	11.988514	-1.037152	-1.037152
O	9.721767	-1.037152	-3.305073
O	9.817485	1.133961	-1.133961
O	14.063825	1.037152	-1.037152
O	9.817485	3.208265	-3.208265
O	11.892796	3.208265	-1.133961
O	11.892796	1.133961	-3.208265
Zn	7.598597	-1.085556	-3.256669
Zn	9.769626	1.085556	-3.256669
Zn	11.940655	1.085556	-1.085556
Zn	14.111684	-1.085556	-1.085556
Hf	0.000000	-4.342226	-4.342226
Hf	2.171029	-6.513339	-6.513339
O	-1.037655	-3.305074	-7.647299
O	3.304403	-5.379378	-5.379378
O	1.037655	-5.379378	-7.647299
O	1.133374	-3.208265	-5.476187
O	5.379713	-3.305074	-5.379378
O	1.133374	-1.133961	-7.550491
O	3.208684	-1.133961	-5.476187
O	3.208684	-3.208265	-7.550491
Zn	-1.085515	-5.427782	-7.598895
Zn	1.085515	-3.256670	-7.598895
Zn	3.256544	-3.256670	-5.427782
Zn	5.427573	-5.427782	-5.427782
Hf	4.342056	0.000000	-4.342226
Hf	6.513085	-2.171113	-6.513339
O	3.304401	1.037152	-7.647299
O	7.646459	-1.037152	-5.379378
O	5.379711	-1.037152	-7.647299
O	5.475430	1.133961	-5.476187
O	9.721769	1.037152	-5.379378
O	5.475430	3.208265	-7.550491
O	7.550740	3.208265	-5.476187
O	7.550740	1.133961	-7.550491
Zn	3.256541	-1.085556	-7.598895
Zn	5.427570	1.085556	-7.598895
Zn	7.598599	1.085556	-5.427782
Zn	9.769628	-1.085556	-5.427782
