112

O	4.048357	-1.125320	-1.125320
O	-1.126026	1.125320	-4.050495
O	1.126026	-1.125320	-4.050495
O	1.461166	1.462588	-1.462588
O	6.300410	1.125320	-1.125320
O	1.461166	3.713227	-3.713227
O	3.713218	1.462588	-3.713227
O	3.713218	3.713227	-1.462588
Sr	0.000000	0.000000	0.000000
Sr	2.587192	-2.587907	-2.587907
Th	-1.293596	-1.293954	-3.881861
Th	6.467980	-1.293954	-1.293954
Th	3.880788	1.293954	-1.293954
Th	1.293596	1.293954	-3.881861
O	9.222743	4.050496	-1.125320
O	4.048359	6.301135	-4.050495
O	6.300411	4.050496	-4.050495
O	6.635551	6.638403	-1.462588
O	11.474795	6.301135	-1.125320
O	6.635551	8.889042	-3.713227
O	8.887603	6.638403	-3.713227
O	8.887603	8.889042	-1.462588
Sr	5.174385	5.175815	0.000000
Sr	7.761577	2.587908	-2.587907
Th	3.880789	3.881862	-3.881861
Th	11.642365	3.881862	-1.293954
Th	9.055173	6.469769	-1.293954
Th	6.467981	6.469769	-3.881861
O	-1.126028	-1.125320	-6.301135
O	-6.300412	1.125320	-9.226310
O	-4.048359	-1.125320	-9.226310
O	-3.713220	1.462588	-6.638403
O	1.126025	1.125320	-6.301135
O	-3.713220	3.713227	-8.889042
O	-1.461167	1.462588	-8.889042
O	-1.461167	3.713227	-6.638403
Sr	-5.174385	0.000000	-5.175815
Sr	-2.587193	-2.587907	-7.763723
Th	-6.467981	-1.293954	-9.057676
Th	1.293595	-1.293954	-6.469769
Th	-1.293597	1.293954	-6.469769
Th	-3.880789	1.293954	-9.057676
O	4.048357	4.050496	-6.301135
O	-1.126026	6.301135	-9.226310
O	1.126026	4.050496	-9.226310
O	1.461166	6.638403	-6.638403
O	6.300410	6.301135	-6.301135
O	1.461166	8.889042	-8.889042
O	3.713218	6.638403	-8.889042
O	3.713218	8.889042	-6.638403
Sr	0.000000	5.175815	-5.175815
Sr	2.587192	2.587908	-7.763723
Th	-1.293596	3.881862	-9.057676
Th	6.467980	3.881862	-6.469769
Th	3.880788	6.469769	-6.469769
Th	1.293596	6.469769	-9.057676
O	9.222743	-6.301135	-1.125320
O	4.048359	-4.050496	-4.050495
O	6.300411	-6.301135	-4.050495
O	6.635551	-3.713228	-1.462588
O	11.474795	-4.050496	-1.125320
O	6.635551	-1.462588	-3.713227
O	8.887603	-3.713228	-3.713227
O	8.887603	-1.462588	-1.462588
Sr	5.174385	-5.175815	0.000000
Sr	7.761577	-7.763723	-2.587907
Th	3.880789	-6.469769	-3.881861
Th	11.642365	-6.469769	-1.293954
Th	9.055173	-3.881862	-1.293954
Th	6.467981	-3.881862	-3.881861
O	14.397128	-1.125320	-1.125320
O	9.222744	1.125320	-4.050495
O	11.474797	-1.125320	-4.050495
O	11.809936	1.462588	-1.462588
O	16.649180	1.125320	-1.125320
O	11.809936	3.713227	-3.713227
O	14.061989	1.462588	-3.713227
O	14.061989	3.713227	-1.462588
Sr	10.348770	0.000000	0.000000
Sr	12.935962	-2.587907	-2.587907
Th	9.055174	-1.293954	-3.881861
Th	16.816750	-1.293954	-1.293954
Th	14.229558	1.293954	-1.293954
Th	11.642366	1.293954	-3.881861
O	4.048357	-6.301135	-6.301135
O	-1.126026	-4.050496	-9.226310
O	1.126026	-6.301135	-9.226310
O	1.461166	-3.713228	-6.638403
O	6.300410	-4.050496	-6.301135
O	1.461166	-1.462588	-8.889042
O	3.713218	-3.713228	-8.889042
O	3.713218	-1.462588	-6.638403
Sr	0.000000	-5.175815	-5.175815
Sr	2.587192	-7.763723	-7.763723
Th	-1.293596	-6.469769	-9.057676
Th	6.467980	-6.469769	-6.469769
Th	3.880788	-3.881862	-6.469769
Th	1.293596	-3.881862	-9.057676
O	9.222743	-1.125320	-6.301135
O	4.048359	1.125320	-9.226310
O	6.300411	-1.125320	-9.226310
O	6.635551	1.462588	-6.638403
O	11.474795	1.125320	-6.301135
O	6.635551	3.713227	-8.889042
O	8.887603	1.462588	-8.889042
O	8.887603	3.713227	-6.638403
Sr	5.174385	0.000000	-5.175815
Sr	7.761577	-2.587907	-7.763723
Th	3.880789	-1.293954	-9.057676
Th	11.642365	-1.293954	-6.469769
Th	9.055173	1.293954	-6.469769
Th	6.467981	1.293954	-9.057676
