112

B	0.000000	0.000000	0.000000
B	2.148067	-2.148627	-2.148627
Ho	-1.074033	-1.074314	-3.222941
Ho	3.222100	1.074314	-1.074314
Ho	5.370167	-1.074314	-1.074314
Ho	1.074033	1.074314	-3.222941
O	3.042465	-1.254373	-1.254373
O	-1.253669	1.254373	-3.042882
O	1.253669	-1.254373	-3.042882
O	0.894398	0.894254	-0.894254
O	5.549802	1.254373	-1.254373
O	0.894398	3.403000	-3.403000
O	3.401736	3.403000	-0.894254
O	3.401736	0.894254	-3.403000
B	4.296134	4.297255	0.000000
B	6.444200	2.148627	-2.148627
Ho	3.222100	3.222941	-3.222941
Ho	7.518234	5.371568	-1.074314
Ho	9.666301	3.222941	-1.074314
Ho	5.370167	5.371568	-3.222941
O	7.338598	3.042882	-1.254373
O	3.042465	5.551628	-3.042882
O	5.549802	3.042882	-3.042882
O	5.190531	5.191509	-0.894254
O	9.845936	5.551628	-1.254373
O	5.190531	7.700255	-3.403000
O	7.697869	7.700255	-0.894254
O	7.697869	5.191509	-3.403000
B	-4.296134	0.000000	-4.297255
B	-2.148067	-2.148627	-6.445882
Ho	-5.370167	-1.074314	-7.520196
Ho	-1.074033	1.074314	-5.371568
Ho	1.074033	-1.074314	-5.371568
Ho	-3.222100	1.074314	-7.520196
O	-1.253669	-1.254373	-5.551628
O	-5.549802	1.254373	-7.340136
O	-3.042465	-1.254373	-7.340136
O	-3.401736	0.894254	-5.191509
O	1.253669	1.254373	-5.551628
O	-3.401736	3.403000	-7.700255
O	-0.894398	3.403000	-5.191509
O	-0.894398	0.894254	-7.700255
B	0.000000	4.297255	-4.297255
B	2.148067	2.148627	-6.445882
Ho	-1.074033	3.222941	-7.520196
Ho	3.222100	5.371568	-5.371568
Ho	5.370167	3.222941	-5.371568
Ho	1.074033	5.371568	-7.520196
O	3.042465	3.042882	-5.551628
O	-1.253669	5.551628	-7.340136
O	1.253669	3.042882	-7.340136
O	0.894398	5.191509	-5.191509
O	5.549802	5.551628	-5.551628
O	0.894398	7.700255	-7.700255
O	3.401736	7.700255	-5.191509
O	3.401736	5.191509	-7.700255
B	4.296134	-4.297255	0.000000
B	6.444200	-6.445882	-2.148627
Ho	3.222100	-5.371568	-3.222941
Ho	7.518234	-3.222941	-1.074314
Ho	9.666301	-5.371568	-1.074314
Ho	5.370167	-3.222941	-3.222941
O	7.338598	-5.551628	-1.254373
O	3.042465	-3.042882	-3.042882
O	5.549802	-5.551628	-3.042882
O	5.190531	-3.403000	-0.894254
O	9.845936	-3.042882	-1.254373
O	5.190531	-0.894254	-3.403000
O	7.697869	-0.894254	-0.894254
O	7.697869	-3.403000	-3.403000
B	8.592267	0.000000	0.000000
B	10.740334	-2.148627	-2.148627
Ho	7.518234	-1.074314	-3.222941
Ho	11.814367	1.074314	-1.074314
Ho	13.962434	-1.074314	-1.074314
Ho	9.666301	1.074314	-3.222941
O	11.634732	-1.254373	-1.254373
O	7.338598	1.254373	-3.042882
O	9.845936	-1.254373	-3.042882
O	9.486665	0.894254	-0.894254
O	14.142070	1.254373	-1.254373
O	9.486665	3.403000	-3.403000
O	11.994003	3.403000	-0.894254
O	11.994003	0.894254	-3.403000
B	0.000000	-4.297255	-4.297255
B	2.148067	-6.445882	-6.445882
Ho	-1.074033	-5.371568	-7.520196
Ho	3.222100	-3.222941	-5.371568
Ho	5.370167	-5.371568	-5.371568
Ho	1.074033	-3.222941	-7.520196
O	3.042465	-5.551628	-5.551628
O	-1.253669	-3.042882	-7.340136
O	1.253669	-5.551628	-7.340136
O	0.894398	-3.403000	-5.191509
O	5.549802	-3.042882	-5.551628
O	0.894398	-0.894254	-7.700255
O	3.401736	-0.894254	-5.191509
O	3.401736	-3.403000	-7.700255
B	4.296134	0.000000	-4.297255
B	6.444200	-2.148627	-6.445882
Ho	3.222100	-1.074314	-7.520196
Ho	7.518234	1.074314	-5.371568
Ho	9.666301	-1.074314	-5.371568
Ho	5.370167	1.074314	-7.520196
O	7.338598	-1.254373	-5.551628
O	3.042465	1.254373	-7.340136
O	5.549802	-1.254373	-7.340136
O	5.190531	0.894254	-5.191509
O	9.845936	1.254373	-5.551628
O	5.190531	3.403000	-7.700255
O	7.697869	3.403000	-5.191509
O	7.697869	0.894254	-7.700255
