40

Co	0.000000	0.000000	0.000000
Mn	1.875103	1.875103	1.875103
O	1.875103	1.875103	0.000000
O	1.875103	0.000000	1.875103
O	0.000000	1.875103	1.875103
Co	0.000000	0.000000	3.750205
Mn	1.875103	1.875103	5.625308
O	1.875103	1.875103	3.750205
O	1.875103	0.000000	5.625308
O	0.000000	1.875103	5.625308
Co	0.000000	3.750205	0.000000
Mn	1.875103	5.625308	1.875103
O	1.875103	5.625308	0.000000
O	1.875103	3.750205	1.875103
O	0.000000	5.625308	1.875103
Co	0.000000	3.750205	3.750205
Mn	1.875103	5.625308	5.625308
O	1.875103	5.625308	3.750205
O	1.875103	3.750205	5.625308
O	0.000000	5.625308	5.625308
Co	3.750205	0.000000	0.000000
Mn	5.625308	1.875103	1.875103
O	5.625308	1.875103	0.000000
O	5.625308	0.000000	1.875103
O	3.750205	1.875103	1.875103
Co	3.750205	0.000000	3.750205
Mn	5.625308	1.875103	5.625308
O	5.625308	1.875103	3.750205
O	5.625308	0.000000	5.625308
O	3.750205	1.875103	5.625308
Co	3.750205	3.750205	0.000000
Mn	5.625308	5.625308	1.875103
O	5.625308	5.625308	0.000000
O	5.625308	3.750205	1.875103
O	3.750205	5.625308	1.875103
Co	3.750205	3.750205	3.750205
Mn	5.625308	5.625308	5.625308
O	5.625308	5.625308	3.750205
O	5.625308	3.750205	5.625308
O	3.750205	5.625308	5.625308
