40

O	2.138193	2.138193	0.000000
O	2.138193	0.000000	2.138193
O	0.000000	2.138193	2.138193
Sr	0.000000	0.000000	0.000000
Tl	2.138193	2.138193	2.138193
O	2.138193	2.138193	4.276386
O	2.138193	0.000000	6.414580
O	0.000000	2.138193	6.414580
Sr	0.000000	0.000000	4.276386
Tl	2.138193	2.138193	6.414580
O	2.138193	6.414580	0.000000
O	2.138193	4.276386	2.138193
O	0.000000	6.414580	2.138193
Sr	0.000000	4.276386	0.000000
Tl	2.138193	6.414580	2.138193
O	2.138193	6.414580	4.276386
O	2.138193	4.276386	6.414580
O	0.000000	6.414580	6.414580
Sr	0.000000	4.276386	4.276386
Tl	2.138193	6.414580	6.414580
O	6.414580	2.138193	0.000000
O	6.414580	0.000000	2.138193
O	4.276386	2.138193	2.138193
Sr	4.276386	0.000000	0.000000
Tl	6.414580	2.138193	2.138193
O	6.414580	2.138193	4.276386
O	6.414580	0.000000	6.414580
O	4.276386	2.138193	6.414580
Sr	4.276386	0.000000	4.276386
Tl	6.414580	2.138193	6.414580
O	6.414580	6.414580	0.000000
O	6.414580	4.276386	2.138193
O	4.276386	6.414580	2.138193
Sr	4.276386	4.276386	0.000000
Tl	6.414580	6.414580	2.138193
O	6.414580	6.414580	4.276386
O	6.414580	4.276386	6.414580
O	4.276386	6.414580	6.414580
Sr	4.276386	4.276386	4.276386
Tl	6.414580	6.414580	6.414580
