112

Co	0.000000	0.000000	0.000000
Co	2.133810	2.133810	2.133810
Fe	3.200710	5.334520	3.200710
Fe	5.334520	3.200710	3.200710
Fe	3.200710	3.200710	5.334520
Fe	5.334520	5.334520	5.334520
O	7.378170	5.424670	5.424670
O	5.424670	7.378170	5.424670
O	5.424670	5.424670	7.378170
O	7.378170	7.378170	7.378170
O	5.244360	3.290860	5.244360
O	3.290860	5.244360	5.244360
O	5.244360	5.244360	3.290860
O	3.290860	3.290860	3.290860
Co	4.267614	4.267614	0.000000
Co	6.401424	6.401424	2.133810
Fe	7.468324	9.602134	3.200710
Fe	9.602134	7.468324	3.200710
Fe	7.468324	7.468324	5.334520
Fe	9.602134	9.602134	5.334520
O	11.645784	9.692284	5.424670
O	9.692284	11.645784	5.424670
O	9.692284	9.692284	7.378170
O	11.645784	11.645784	7.378170
O	9.511974	7.558474	5.244360
O	7.558474	9.511974	5.244360
O	9.511974	9.511974	3.290860
O	7.558474	7.558474	3.290860
Co	4.267614	0.000000	4.267614
Co	6.401424	2.133810	6.401424
Fe	7.468324	5.334520	7.468324
Fe	9.602134	3.200710	7.468324
Fe	7.468324	3.200710	9.602134
Fe	9.602134	5.334520	9.602134
O	11.645784	5.424670	9.692284
O	9.692284	7.378170	9.692284
O	9.692284	5.424670	11.645784
O	11.645784	7.378170	11.645784
O	9.511974	3.290860	9.511974
O	7.558474	5.244360	9.511974
O	9.511974	5.244360	7.558474
O	7.558474	3.290860	7.558474
Co	8.535229	4.267614	4.267614
Co	10.669039	6.401424	6.401424
Fe	11.735939	9.602134	7.468324
Fe	13.869749	7.468324	7.468324
Fe	11.735939	7.468324	9.602134
Fe	13.869749	9.602134	9.602134
O	15.913399	9.692284	9.692284
O	13.959899	11.645784	9.692284
O	13.959899	9.692284	11.645784
O	15.913399	11.645784	11.645784
O	13.779589	7.558474	9.511974
O	11.826089	9.511974	9.511974
O	13.779589	9.511974	7.558474
O	11.826089	7.558474	7.558474
Co	0.000000	4.267614	4.267614
Co	2.133810	6.401424	6.401424
Fe	3.200710	9.602134	7.468324
Fe	5.334520	7.468324	7.468324
Fe	3.200710	7.468324	9.602134
Fe	5.334520	9.602134	9.602134
O	7.378170	9.692284	9.692284
O	5.424670	11.645784	9.692284
O	5.424670	9.692284	11.645784
O	7.378170	11.645784	11.645784
O	5.244360	7.558474	9.511974
O	3.290860	9.511974	9.511974
O	5.244360	9.511974	7.558474
O	3.290860	7.558474	7.558474
Co	4.267614	8.535229	4.267614
Co	6.401424	10.669039	6.401424
Fe	7.468324	13.869749	7.468324
Fe	9.602134	11.735939	7.468324
Fe	7.468324	11.735939	9.602134
Fe	9.602134	13.869749	9.602134
O	11.645784	13.959899	9.692284
O	9.692284	15.913399	9.692284
O	9.692284	13.959899	11.645784
O	11.645784	15.913399	11.645784
O	9.511974	11.826089	9.511974
O	7.558474	13.779589	9.511974
O	9.511974	13.779589	7.558474
O	7.558474	11.826089	7.558474
Co	4.267614	4.267614	8.535229
Co	6.401424	6.401424	10.669039
Fe	7.468324	9.602134	11.735939
Fe	9.602134	7.468324	11.735939
Fe	7.468324	7.468324	13.869749
Fe	9.602134	9.602134	13.869749
O	11.645784	9.692284	13.959899
O	9.692284	11.645784	13.959899
O	9.692284	9.692284	15.913399
O	11.645784	11.645784	15.913399
O	9.511974	7.558474	13.779589
O	7.558474	9.511974	13.779589
O	9.511974	9.511974	11.826089
O	7.558474	7.558474	11.826089
Co	8.535229	8.535229	8.535229
Co	10.669039	10.669039	10.669039
Fe	11.735939	13.869749	11.735939
Fe	13.869749	11.735939	11.735939
Fe	11.735939	11.735939	13.869749
Fe	13.869749	13.869749	13.869749
O	15.913399	13.959899	13.959899
O	13.959899	15.913399	13.959899
O	13.959899	13.959899	15.913399
O	15.913399	15.913399	15.913399
O	13.779589	11.826089	13.779589
O	11.826089	13.779589	13.779589
O	13.779589	13.779589	11.826089
O	11.826089	11.826089	11.826089
