112

Co	0.000000	0.000000	0.000000
Co	2.109408	-2.109408	-2.109408
Fe	-1.054704	-1.054704	-3.164113
Fe	3.164113	1.054704	-1.054704
Fe	5.273521	-1.054704	-1.054704
Fe	1.054704	1.054704	-3.164113
O	3.249192	-0.969625	-0.969625
O	-0.969625	0.969625	-3.249192
O	0.969625	-0.969625	-3.249192
O	1.139784	1.139784	-1.139784
O	5.188442	0.969625	-0.969625
O	3.079033	3.079033	-1.139784
O	1.139784	3.079033	-3.079033
O	3.079033	1.139784	-3.079033
Co	4.218817	4.218817	0.000000
Co	6.328225	2.109408	-2.109408
Fe	3.164113	3.164113	-3.164113
Fe	7.382929	5.273521	-1.054704
Fe	9.492338	3.164113	-1.054704
Fe	5.273521	5.273521	-3.164113
O	7.468009	3.249192	-0.969625
O	3.249192	5.188442	-3.249192
O	5.188442	3.249192	-3.249192
O	5.358600	5.358600	-1.139784
O	9.407259	5.188442	-0.969625
O	7.297850	7.297850	-1.139784
O	5.358600	7.297850	-3.079033
O	7.297850	5.358600	-3.079033
Co	-4.218817	0.000000	-4.218817
Co	-2.109408	-2.109408	-6.328225
Fe	-5.273521	-1.054704	-7.382929
Fe	-1.054704	1.054704	-5.273521
Fe	1.054704	-1.054704	-5.273521
Fe	-3.164113	1.054704	-7.382929
O	-0.969625	-0.969625	-5.188442
O	-5.188442	0.969625	-7.468009
O	-3.249192	-0.969625	-7.468009
O	-3.079033	1.139784	-5.358600
O	0.969625	0.969625	-5.188442
O	-1.139784	3.079033	-5.358600
O	-3.079033	3.079033	-7.297850
O	-1.139784	1.139784	-7.297850
Co	0.000000	4.218817	-4.218817
Co	2.109408	2.109408	-6.328225
Fe	-1.054704	3.164113	-7.382929
Fe	3.164113	5.273521	-5.273521
Fe	5.273521	3.164113	-5.273521
Fe	1.054704	5.273521	-7.382929
O	3.249192	3.249192	-5.188442
O	-0.969625	5.188442	-7.468009
O	0.969625	3.249192	-7.468009
O	1.139784	5.358600	-5.358600
O	5.188442	5.188442	-5.188442
O	3.079033	7.297850	-5.358600
O	1.139784	7.297850	-7.297850
O	3.079033	5.358600	-7.297850
Co	4.218817	-4.218817	0.000000
Co	6.328225	-6.328225	-2.109408
Fe	3.164113	-5.273521	-3.164113
Fe	7.382929	-3.164113	-1.054704
Fe	9.492338	-5.273521	-1.054704
Fe	5.273521	-3.164113	-3.164113
O	7.468009	-5.188442	-0.969625
O	3.249192	-3.249192	-3.249192
O	5.188442	-5.188442	-3.249192
O	5.358600	-3.079033	-1.139784
O	9.407259	-3.249192	-0.969625
O	7.297850	-1.139784	-1.139784
O	5.358600	-1.139784	-3.079033
O	7.297850	-3.079033	-3.079033
Co	8.437634	0.000000	0.000000
Co	10.547042	-2.109408	-2.109408
Fe	7.382929	-1.054704	-3.164113
Fe	11.601746	1.054704	-1.054704
Fe	13.711155	-1.054704	-1.054704
Fe	9.492338	1.054704	-3.164113
O	11.686826	-0.969625	-0.969625
O	7.468009	0.969625	-3.249192
O	9.407259	-0.969625	-3.249192
O	9.577417	1.139784	-1.139784
O	13.626075	0.969625	-0.969625
O	11.516667	3.079033	-1.139784
O	9.577417	3.079033	-3.079033
O	11.516667	1.139784	-3.079033
Co	0.000000	-4.218817	-4.218817
Co	2.109408	-6.328225	-6.328225
Fe	-1.054704	-5.273521	-7.382929
Fe	3.164113	-3.164113	-5.273521
Fe	5.273521	-5.273521	-5.273521
Fe	1.054704	-3.164113	-7.382929
O	3.249192	-5.188442	-5.188442
O	-0.969625	-3.249192	-7.468009
O	0.969625	-5.188442	-7.468009
O	1.139784	-3.079033	-5.358600
O	5.188442	-3.249192	-5.188442
O	3.079033	-1.139784	-5.358600
O	1.139784	-1.139784	-7.297850
O	3.079033	-3.079033	-7.297850
Co	4.218817	0.000000	-4.218817
Co	6.328225	-2.109408	-6.328225
Fe	3.164113	-1.054704	-7.382929
Fe	7.382929	1.054704	-5.273521
Fe	9.492338	-1.054704	-5.273521
Fe	5.273521	1.054704	-7.382929
O	7.468009	-0.969625	-5.188442
O	3.249192	0.969625	-7.468009
O	5.188442	-0.969625	-7.468009
O	5.358600	1.139784	-5.358600
O	9.407259	0.969625	-5.188442
O	7.297850	3.079033	-5.358600
O	5.358600	3.079033	-7.297850
O	7.297850	1.139784	-7.297850
