40

Mo	0.000000	0.000000	0.000000
O	0.000000	2.077163	2.077163
O	2.077163	0.000000	2.077163
O	2.077163	2.077163	0.000000
Zr	2.077163	2.077163	2.077163
Mo	0.000000	0.000000	4.154327
O	0.000000	2.077163	6.231490
O	2.077163	0.000000	6.231490
O	2.077163	2.077163	4.154327
Zr	2.077163	2.077163	6.231490
Mo	0.000000	4.154327	0.000000
O	0.000000	6.231490	2.077163
O	2.077163	4.154327	2.077163
O	2.077163	6.231490	0.000000
Zr	2.077163	6.231490	2.077163
Mo	0.000000	4.154327	4.154327
O	0.000000	6.231490	6.231490
O	2.077163	4.154327	6.231490
O	2.077163	6.231490	4.154327
Zr	2.077163	6.231490	6.231490
Mo	4.154327	0.000000	0.000000
O	4.154327	2.077163	2.077163
O	6.231490	0.000000	2.077163
O	6.231490	2.077163	0.000000
Zr	6.231490	2.077163	2.077163
Mo	4.154327	0.000000	4.154327
O	4.154327	2.077163	6.231490
O	6.231490	0.000000	6.231490
O	6.231490	2.077163	4.154327
Zr	6.231490	2.077163	6.231490
Mo	4.154327	4.154327	0.000000
O	4.154327	6.231490	2.077163
O	6.231490	4.154327	2.077163
O	6.231490	6.231490	0.000000
Zr	6.231490	6.231490	2.077163
Mo	4.154327	4.154327	4.154327
O	4.154327	6.231490	6.231490
O	6.231490	4.154327	6.231490
O	6.231490	6.231490	4.154327
Zr	6.231490	6.231490	6.231490
