112

As	0.000000	0.000000	0.000000
As	2.043021	-2.042982	-2.042982
Li	-1.021510	-1.021491	-3.064463
Li	1.021511	1.021491	-3.064463
Li	5.107552	-1.021491	-1.021491
Li	3.064531	1.021491	-1.021491
O	0.993838	0.994025	-0.994025
O	-1.049183	1.048947	-3.037007
O	3.036859	-1.048947	-1.048947
O	1.049183	-1.048947	-3.037007
O	0.993838	3.091929	-3.091929
O	3.092204	3.091929	-0.994025
O	3.092204	0.994025	-3.091929
O	5.135215	1.048947	-1.048947
As	4.086038	4.085957	0.000000
As	6.129059	2.042975	-2.042982
Li	3.064528	3.064466	-3.064463
Li	5.107549	5.107448	-3.064463
Li	9.193590	3.064466	-1.021491
Li	7.150570	5.107448	-1.021491
O	5.079876	5.079982	-0.994025
O	3.036855	5.134904	-3.037007
O	7.122897	3.037010	-1.048947
O	5.135221	3.037010	-3.037007
O	5.079876	7.177886	-3.091929
O	7.178242	7.177885	-0.994025
O	7.178242	5.079982	-3.091929
O	9.221253	5.134904	-1.048947
As	-4.086038	0.000000	-4.085957
As	-2.043017	-2.042982	-6.128939
Li	-5.107549	-1.021491	-7.150420
Li	-3.064528	1.021491	-7.150420
Li	1.021514	-1.021491	-5.107448
Li	-1.021507	1.021491	-5.107448
O	-3.092200	0.994025	-5.079982
O	-5.135221	1.048947	-7.122964
O	-1.049180	-1.048947	-5.134904
O	-3.036855	-1.048947	-7.122964
O	-3.092200	3.091929	-7.177885
O	-0.993834	3.091929	-5.079982
O	-0.993834	0.994025	-7.177885
O	1.049177	1.048947	-5.134904
As	0.000000	4.085957	-4.085957
As	2.043021	2.042975	-6.128939
Li	-1.021510	3.064466	-7.150420
Li	1.021511	5.107448	-7.150420
Li	5.107552	3.064466	-5.107448
Li	3.064531	5.107448	-5.107448
O	0.993838	5.079982	-5.079982
O	-1.049183	5.134904	-7.122964
O	3.036859	3.037010	-5.134904
O	1.049183	3.037010	-7.122964
O	0.993838	7.177886	-7.177885
O	3.092204	7.177885	-5.079982
O	3.092204	5.079982	-7.177885
O	5.135215	5.134904	-5.134904
As	4.086038	-4.085957	0.000000
As	6.129059	-6.128939	-2.042982
Li	3.064528	-5.107448	-3.064463
Li	5.107549	-3.064466	-3.064463
Li	9.193590	-5.107448	-1.021491
Li	7.150570	-3.064466	-1.021491
O	5.079876	-3.091932	-0.994025
O	3.036855	-3.037010	-3.037007
O	7.122897	-5.134904	-1.048947
O	5.135221	-5.134904	-3.037007
O	5.079876	-0.994028	-3.091929
O	7.178242	-0.994028	-0.994025
O	7.178242	-3.091932	-3.091929
O	9.221253	-3.037010	-1.048947
As	8.172076	0.000000	0.000000
As	10.215097	-2.042982	-2.042982
Li	7.150566	-1.021491	-3.064463
Li	9.193587	1.021491	-3.064463
Li	13.279629	-1.021491	-1.021491
Li	11.236608	1.021491	-1.021491
O	9.165914	0.994025	-0.994025
O	7.122893	1.048947	-3.037007
O	11.208935	-1.048947	-1.048947
O	9.221260	-1.048947	-3.037007
O	9.165914	3.091929	-3.091929
O	11.264280	3.091929	-0.994025
O	11.264280	0.994025	-3.091929
O	13.307292	1.048947	-1.048947
As	0.000000	-4.085957	-4.085957
As	2.043021	-6.128939	-6.128939
Li	-1.021510	-5.107448	-7.150420
Li	1.021511	-3.064466	-7.150420
Li	5.107552	-5.107448	-5.107448
Li	3.064531	-3.064466	-5.107448
O	0.993838	-3.091932	-5.079982
O	-1.049183	-3.037010	-7.122964
O	3.036859	-5.134904	-5.134904
O	1.049183	-5.134904	-7.122964
O	0.993838	-0.994028	-7.177885
O	3.092204	-0.994028	-5.079982
O	3.092204	-3.091932	-7.177885
O	5.135215	-3.037010	-5.134904
As	4.086038	0.000000	-4.085957
As	6.129059	-2.042982	-6.128939
Li	3.064528	-1.021491	-7.150420
Li	5.107549	1.021491	-7.150420
Li	9.193590	-1.021491	-5.107448
Li	7.150570	1.021491	-5.107448
O	5.079876	0.994025	-5.079982
O	3.036855	1.048947	-7.122964
O	7.122897	-1.048947	-5.134904
O	5.135221	-1.048947	-7.122964
O	5.079876	3.091929	-7.177885
O	7.178242	3.091929	-5.079982
O	7.178242	0.994025	-7.177885
O	9.221253	1.048947	-5.134904
