40

O	2.193330	2.193330	0.000000
O	0.000000	2.193330	2.193330
O	2.193330	0.000000	2.193330
Pa	0.000000	0.000000	0.000000
Sm_3	2.193330	2.193330	2.193330
O	2.193330	2.193330	4.386675
O	0.000000	2.193330	6.580005
O	2.193330	0.000000	6.580005
Pa	0.000000	0.000000	4.386675
Sm_3	2.193330	2.193330	6.580005
O	2.193330	6.580005	0.000000
O	0.000000	6.580005	2.193330
O	2.193330	4.386675	2.193330
Pa	0.000000	4.386675	0.000000
Sm_3	2.193330	6.580005	2.193330
O	2.193330	6.580005	4.386675
O	0.000000	6.580005	6.580005
O	2.193330	4.386675	6.580005
Pa	0.000000	4.386675	4.386675
Sm_3	2.193330	6.580005	6.580005
O	6.580005	2.193330	0.000000
O	4.386675	2.193330	2.193330
O	6.580005	0.000000	2.193330
Pa	4.386675	0.000000	0.000000
Sm_3	6.580005	2.193330	2.193330
O	6.580005	2.193330	4.386675
O	4.386675	2.193330	6.580005
O	6.580005	0.000000	6.580005
Pa	4.386675	0.000000	4.386675
Sm_3	6.580005	2.193330	6.580005
O	6.580005	6.580005	0.000000
O	4.386675	6.580005	2.193330
O	6.580005	4.386675	2.193330
Pa	4.386675	4.386675	0.000000
Sm_3	6.580005	6.580005	2.193330
O	6.580005	6.580005	4.386675
O	4.386675	6.580005	6.580005
O	6.580005	4.386675	6.580005
Pa	4.386675	4.386675	4.386675
Sm_3	6.580005	6.580005	6.580005
