40

Na	1.996200	1.996200	1.996200
O	1.996200	1.996200	0.000000
O	1.996200	0.000000	1.996200
O	0.000000	1.996200	1.996200
Tc	0.000000	0.000000	0.000000
Na	1.996200	1.996200	5.988600
O	1.996200	1.996200	3.992400
O	1.996200	0.000000	5.988600
O	0.000000	1.996200	5.988600
Tc	0.000000	0.000000	3.992400
Na	1.996200	5.988600	1.996200
O	1.996200	5.988600	0.000000
O	1.996200	3.992400	1.996200
O	0.000000	5.988600	1.996200
Tc	0.000000	3.992400	0.000000
Na	1.996200	5.988600	5.988600
O	1.996200	5.988600	3.992400
O	1.996200	3.992400	5.988600
O	0.000000	5.988600	5.988600
Tc	0.000000	3.992400	3.992400
Na	5.988600	1.996200	1.996200
O	5.988600	1.996200	0.000000
O	5.988600	0.000000	1.996200
O	3.992400	1.996200	1.996200
Tc	3.992400	0.000000	0.000000
Na	5.988600	1.996200	5.988600
O	5.988600	1.996200	3.992400
O	5.988600	0.000000	5.988600
O	3.992400	1.996200	5.988600
Tc	3.992400	0.000000	3.992400
Na	5.988600	5.988600	1.996200
O	5.988600	5.988600	0.000000
O	5.988600	3.992400	1.996200
O	3.992400	5.988600	1.996200
Tc	3.992400	3.992400	0.000000
Na	5.988600	5.988600	5.988600
O	5.988600	5.988600	3.992400
O	5.988600	3.992400	5.988600
O	3.992400	5.988600	5.988600
Tc	3.992400	3.992400	3.992400
