40

Al	1.889078	1.889078	1.889078
La	0.000000	0.000000	0.000000
O	0.000000	1.889078	1.889078
O	1.889078	0.000000	1.889078
O	1.889078	1.889078	0.000000
Al	1.889078	1.889078	5.667233
La	0.000000	0.000000	3.778155
O	0.000000	1.889078	5.667233
O	1.889078	0.000000	5.667233
O	1.889078	1.889078	3.778155
Al	1.889078	5.667233	1.889078
La	0.000000	3.778155	0.000000
O	0.000000	5.667233	1.889078
O	1.889078	3.778155	1.889078
O	1.889078	5.667233	0.000000
Al	1.889078	5.667233	5.667233
La	0.000000	3.778155	3.778155
O	0.000000	5.667233	5.667233
O	1.889078	3.778155	5.667233
O	1.889078	5.667233	3.778155
Al	5.667233	1.889078	1.889078
La	3.778155	0.000000	0.000000
O	3.778155	1.889078	1.889078
O	5.667233	0.000000	1.889078
O	5.667233	1.889078	0.000000
Al	5.667233	1.889078	5.667233
La	3.778155	0.000000	3.778155
O	3.778155	1.889078	5.667233
O	5.667233	0.000000	5.667233
O	5.667233	1.889078	3.778155
Al	5.667233	5.667233	1.889078
La	3.778155	3.778155	0.000000
O	3.778155	5.667233	1.889078
O	5.667233	3.778155	1.889078
O	5.667233	5.667233	0.000000
Al	5.667233	5.667233	5.667233
La	3.778155	3.778155	3.778155
O	3.778155	5.667233	5.667233
O	5.667233	3.778155	5.667233
O	5.667233	5.667233	3.778155
