40

O	1.923560	1.923560	0.000000
O	0.000000	1.923560	1.923560
O	1.923560	0.000000	1.923560
Sn_d	0.000000	0.000000	0.000000
Zn	1.923560	1.923560	1.923560
O	1.923560	1.923560	3.847114
O	0.000000	1.923560	5.770674
O	1.923560	0.000000	5.770674
Sn_d	0.000000	0.000000	3.847114
Zn	1.923560	1.923560	5.770674
O	1.923560	5.770674	0.000000
O	0.000000	5.770674	1.923560
O	1.923560	3.847114	1.923560
Sn_d	0.000000	3.847114	0.000000
Zn	1.923560	5.770674	1.923560
O	1.923560	5.770674	3.847114
O	0.000000	5.770674	5.770674
O	1.923560	3.847114	5.770674
Sn_d	0.000000	3.847114	3.847114
Zn	1.923560	5.770674	5.770674
O	5.770674	1.923560	0.000000
O	3.847114	1.923560	1.923560
O	5.770674	0.000000	1.923560
Sn_d	3.847114	0.000000	0.000000
Zn	5.770674	1.923560	1.923560
O	5.770674	1.923560	3.847114
O	3.847114	1.923560	5.770674
O	5.770674	0.000000	5.770674
Sn_d	3.847114	0.000000	3.847114
Zn	5.770674	1.923560	5.770674
O	5.770674	5.770674	0.000000
O	3.847114	5.770674	1.923560
O	5.770674	3.847114	1.923560
Sn_d	3.847114	3.847114	0.000000
Zn	5.770674	5.770674	1.923560
O	5.770674	5.770674	3.847114
O	3.847114	5.770674	5.770674
O	5.770674	3.847114	5.770674
Sn_d	3.847114	3.847114	3.847114
Zn	5.770674	5.770674	5.770674
