112

O	3.643763	-1.126994	-1.126994
O	-1.127328	1.126994	-3.645061
O	1.127328	-1.126994	-3.645061
O	1.258217	1.259033	-1.259033
O	5.898418	1.126994	-1.126994
O	1.258217	3.513022	-3.513022
O	3.512873	3.513022	-1.259033
O	3.512873	1.259033	-3.513022
Tb	0.000000	0.000000	0.000000
Tb	2.385545	-2.386028	-2.386028
Yb	-1.192773	-1.193014	-3.579041
Yb	3.578318	1.193014	-1.193014
Yb	5.963863	-1.193014	-1.193014
Yb	1.192773	1.193014	-3.579041
O	8.414853	3.645061	-1.126994
O	3.643763	5.899049	-3.645061
O	5.898418	3.645061	-3.645061
O	6.029308	6.031089	-1.259033
O	10.669509	5.899049	-1.126994
O	6.029308	8.285077	-3.513022
O	8.283963	8.285077	-1.259033
O	8.283963	6.031089	-3.513022
Tb	4.771090	4.772055	0.000000
Tb	7.156636	2.386028	-2.386028
Yb	3.578318	3.579041	-3.579041
Yb	8.349408	5.965069	-1.193014
Yb	10.734953	3.579041	-1.193014
Yb	5.963863	5.965069	-3.579041
O	-1.127328	-1.126994	-5.899049
O	-5.898418	1.126994	-8.417116
O	-3.643763	-1.126994	-8.417116
O	-3.512873	1.259033	-6.031089
O	1.127328	1.126994	-5.899049
O	-3.512873	3.513022	-8.285077
O	-1.258217	3.513022	-6.031089
O	-1.258217	1.259033	-8.285077
Tb	-4.771090	0.000000	-4.772055
Tb	-2.385545	-2.386028	-7.158083
Yb	-5.963863	-1.193014	-8.351097
Yb	-1.192773	1.193014	-5.965069
Yb	1.192773	-1.193014	-5.965069
Yb	-3.578318	1.193014	-8.351097
O	3.643763	3.645061	-5.899049
O	-1.127328	5.899049	-8.417116
O	1.127328	3.645061	-8.417116
O	1.258217	6.031089	-6.031089
O	5.898418	5.899049	-5.899049
O	1.258217	8.285077	-8.285077
O	3.512873	8.285077	-6.031089
O	3.512873	6.031089	-8.285077
Tb	0.000000	4.772055	-4.772055
Tb	2.385545	2.386028	-7.158083
Yb	-1.192773	3.579041	-8.351097
Yb	3.578318	5.965069	-5.965069
Yb	5.963863	3.579041	-5.965069
Yb	1.192773	5.965069	-8.351097
O	8.414853	-5.899049	-1.126994
O	3.643763	-3.645061	-3.645061
O	5.898418	-5.899049	-3.645061
O	6.029308	-3.513022	-1.259033
O	10.669509	-3.645061	-1.126994
O	6.029308	-1.259033	-3.513022
O	8.283963	-1.259033	-1.259033
O	8.283963	-3.513022	-3.513022
Tb	4.771090	-4.772055	0.000000
Tb	7.156636	-7.158083	-2.386028
Yb	3.578318	-5.965069	-3.579041
Yb	8.349408	-3.579041	-1.193014
Yb	10.734953	-5.965069	-1.193014
Yb	5.963863	-3.579041	-3.579041
O	13.185943	-1.126994	-1.126994
O	8.414853	1.126994	-3.645061
O	10.669509	-1.126994	-3.645061
O	10.800398	1.259033	-1.259033
O	15.440599	1.126994	-1.126994
O	10.800398	3.513022	-3.513022
O	13.055054	3.513022	-1.259033
O	13.055054	1.259033	-3.513022
Tb	9.542181	0.000000	0.000000
Tb	11.927726	-2.386028	-2.386028
Yb	8.349408	-1.193014	-3.579041
Yb	13.120499	1.193014	-1.193014
Yb	15.506044	-1.193014	-1.193014
Yb	10.734953	1.193014	-3.579041
O	3.643763	-5.899049	-5.899049
O	-1.127328	-3.645061	-8.417116
O	1.127328	-5.899049	-8.417116
O	1.258217	-3.513022	-6.031089
O	5.898418	-3.645061	-5.899049
O	1.258217	-1.259033	-8.285077
O	3.512873	-1.259033	-6.031089
O	3.512873	-3.513022	-8.285077
Tb	0.000000	-4.772055	-4.772055
Tb	2.385545	-7.158083	-7.158083
Yb	-1.192773	-5.965069	-8.351097
Yb	3.578318	-3.579041	-5.965069
Yb	5.963863	-5.965069	-5.965069
Yb	1.192773	-3.579041	-8.351097
O	8.414853	-1.126994	-5.899049
O	3.643763	1.126994	-8.417116
O	5.898418	-1.126994	-8.417116
O	6.029308	1.259033	-6.031089
O	10.669509	1.126994	-5.899049
O	6.029308	3.513022	-8.285077
O	8.283963	3.513022	-6.031089
O	8.283963	1.259033	-8.285077
Tb	4.771090	0.000000	-4.772055
Tb	7.156636	-2.386028	-7.158083
Yb	3.578318	-1.193014	-8.351097
Yb	8.349408	1.193014	-5.965069
Yb	10.734953	-1.193014	-5.965069
Yb	5.963863	1.193014	-8.351097
