40

Au	0.000000	0.000000	0.000000
O	2.235066	2.235066	0.000000
O	2.235066	0.000000	2.235066
O	0.000000	2.235066	2.235066
Pr	2.235066	2.235066	2.235066
Au	0.000000	0.000000	4.470137
O	2.235066	2.235066	4.470137
O	2.235066	0.000000	6.705203
O	0.000000	2.235066	6.705203
Pr	2.235066	2.235066	6.705203
Au	0.000000	4.470137	0.000000
O	2.235066	6.705203	0.000000
O	2.235066	4.470137	2.235066
O	0.000000	6.705203	2.235066
Pr	2.235066	6.705203	2.235066
Au	0.000000	4.470137	4.470137
O	2.235066	6.705203	4.470137
O	2.235066	4.470137	6.705203
O	0.000000	6.705203	6.705203
Pr	2.235066	6.705203	6.705203
Au	4.470137	0.000000	0.000000
O	6.705203	2.235066	0.000000
O	6.705203	0.000000	2.235066
O	4.470137	2.235066	2.235066
Pr	6.705203	2.235066	2.235066
Au	4.470137	0.000000	4.470137
O	6.705203	2.235066	4.470137
O	6.705203	0.000000	6.705203
O	4.470137	2.235066	6.705203
Pr	6.705203	2.235066	6.705203
Au	4.470137	4.470137	0.000000
O	6.705203	6.705203	0.000000
O	6.705203	4.470137	2.235066
O	4.470137	6.705203	2.235066
Pr	6.705203	6.705203	2.235066
Au	4.470137	4.470137	4.470137
O	6.705203	6.705203	4.470137
O	6.705203	4.470137	6.705203
O	4.470137	6.705203	6.705203
Pr	6.705203	6.705203	6.705203
