40

Hf	2.056178	2.056178	2.056178
Li	0.000000	0.000000	0.000000
O	0.000000	2.056178	2.056178
O	2.056178	0.000000	2.056178
O	2.056178	2.056178	0.000000
Hf	2.056178	2.056178	6.168533
Li	0.000000	0.000000	4.112355
O	0.000000	2.056178	6.168533
O	2.056178	0.000000	6.168533
O	2.056178	2.056178	4.112355
Hf	2.056178	6.168533	2.056178
Li	0.000000	4.112355	0.000000
O	0.000000	6.168533	2.056178
O	2.056178	4.112355	2.056178
O	2.056178	6.168533	0.000000
Hf	2.056178	6.168533	6.168533
Li	0.000000	4.112355	4.112355
O	0.000000	6.168533	6.168533
O	2.056178	4.112355	6.168533
O	2.056178	6.168533	4.112355
Hf	6.168533	2.056178	2.056178
Li	4.112355	0.000000	0.000000
O	4.112355	2.056178	2.056178
O	6.168533	0.000000	2.056178
O	6.168533	2.056178	0.000000
Hf	6.168533	2.056178	6.168533
Li	4.112355	0.000000	4.112355
O	4.112355	2.056178	6.168533
O	6.168533	0.000000	6.168533
O	6.168533	2.056178	4.112355
Hf	6.168533	6.168533	2.056178
Li	4.112355	4.112355	0.000000
O	4.112355	6.168533	2.056178
O	6.168533	4.112355	2.056178
O	6.168533	6.168533	0.000000
Hf	6.168533	6.168533	6.168533
Li	4.112355	4.112355	4.112355
O	4.112355	6.168533	6.168533
O	6.168533	4.112355	6.168533
O	6.168533	6.168533	4.112355
