40

Hf	0.000000	0.000000	0.000000
Li	1.736020	1.736020	1.736020
O	1.736020	1.736020	0.000000
O	0.000000	1.736020	1.736020
O	1.736020	0.000000	1.736020
Hf	0.000000	0.000000	3.472051
Li	1.736020	1.736020	5.208071
O	1.736020	1.736020	3.472051
O	0.000000	1.736020	5.208071
O	1.736020	0.000000	5.208071
Hf	0.000000	3.472051	0.000000
Li	1.736020	5.208071	1.736020
O	1.736020	5.208071	0.000000
O	0.000000	5.208071	1.736020
O	1.736020	3.472051	1.736020
Hf	0.000000	3.472051	3.472051
Li	1.736020	5.208071	5.208071
O	1.736020	5.208071	3.472051
O	0.000000	5.208071	5.208071
O	1.736020	3.472051	5.208071
Hf	3.472051	0.000000	0.000000
Li	5.208071	1.736020	1.736020
O	5.208071	1.736020	0.000000
O	3.472051	1.736020	1.736020
O	5.208071	0.000000	1.736020
Hf	3.472051	0.000000	3.472051
Li	5.208071	1.736020	5.208071
O	5.208071	1.736020	3.472051
O	3.472051	1.736020	5.208071
O	5.208071	0.000000	5.208071
Hf	3.472051	3.472051	0.000000
Li	5.208071	5.208071	1.736020
O	5.208071	5.208071	0.000000
O	3.472051	5.208071	1.736020
O	5.208071	3.472051	1.736020
Hf	3.472051	3.472051	3.472051
Li	5.208071	5.208071	5.208071
O	5.208071	5.208071	3.472051
O	3.472051	5.208071	5.208071
O	5.208071	3.472051	5.208071
