40

Mo	0.000000	0.000000	0.000000
Na	1.971938	1.971938	1.971938
O	0.000000	1.971938	1.971938
O	1.971938	0.000000	1.971938
O	1.971938	1.971938	0.000000
Mo	0.000000	0.000000	3.943877
Na	1.971938	1.971938	5.915815
O	0.000000	1.971938	5.915815
O	1.971938	0.000000	5.915815
O	1.971938	1.971938	3.943877
Mo	0.000000	3.943877	0.000000
Na	1.971938	5.915815	1.971938
O	0.000000	5.915815	1.971938
O	1.971938	3.943877	1.971938
O	1.971938	5.915815	0.000000
Mo	0.000000	3.943877	3.943877
Na	1.971938	5.915815	5.915815
O	0.000000	5.915815	5.915815
O	1.971938	3.943877	5.915815
O	1.971938	5.915815	3.943877
Mo	3.943877	0.000000	0.000000
Na	5.915815	1.971938	1.971938
O	3.943877	1.971938	1.971938
O	5.915815	0.000000	1.971938
O	5.915815	1.971938	0.000000
Mo	3.943877	0.000000	3.943877
Na	5.915815	1.971938	5.915815
O	3.943877	1.971938	5.915815
O	5.915815	0.000000	5.915815
O	5.915815	1.971938	3.943877
Mo	3.943877	3.943877	0.000000
Na	5.915815	5.915815	1.971938
O	3.943877	5.915815	1.971938
O	5.915815	3.943877	1.971938
O	5.915815	5.915815	0.000000
Mo	3.943877	3.943877	3.943877
Na	5.915815	5.915815	5.915815
O	3.943877	5.915815	5.915815
O	5.915815	3.943877	5.915815
O	5.915815	5.915815	3.943877
