40

Cu	1.843056	1.843056	1.843056
O	1.843056	1.843056	0.000000
O	1.843056	0.000000	1.843056
O	0.000000	1.843056	1.843056
W	0.000000	0.000000	0.000000
Cu	1.843056	1.843056	5.529179
O	1.843056	1.843056	3.686123
O	1.843056	0.000000	5.529179
O	0.000000	1.843056	5.529179
W	0.000000	0.000000	3.686123
Cu	1.843056	5.529179	1.843056
O	1.843056	5.529179	0.000000
O	1.843056	3.686123	1.843056
O	0.000000	5.529179	1.843056
W	0.000000	3.686123	0.000000
Cu	1.843056	5.529179	5.529179
O	1.843056	5.529179	3.686123
O	1.843056	3.686123	5.529179
O	0.000000	5.529179	5.529179
W	0.000000	3.686123	3.686123
Cu	5.529179	1.843056	1.843056
O	5.529179	1.843056	0.000000
O	5.529179	0.000000	1.843056
O	3.686123	1.843056	1.843056
W	3.686123	0.000000	0.000000
Cu	5.529179	1.843056	5.529179
O	5.529179	1.843056	3.686123
O	5.529179	0.000000	5.529179
O	3.686123	1.843056	5.529179
W	3.686123	0.000000	3.686123
Cu	5.529179	5.529179	1.843056
O	5.529179	5.529179	0.000000
O	5.529179	3.686123	1.843056
O	3.686123	5.529179	1.843056
W	3.686123	3.686123	0.000000
Cu	5.529179	5.529179	5.529179
O	5.529179	5.529179	3.686123
O	5.529179	3.686123	5.529179
O	3.686123	5.529179	5.529179
W	3.686123	3.686123	3.686123
