40

O	0.000000	2.029858	2.029858
O	2.029858	0.000000	2.029858
O	2.029858	2.029858	0.000000
Se	0.000000	0.000000	0.000000
Ta	2.029858	2.029858	2.029858
O	0.000000	2.029858	6.089575
O	2.029858	0.000000	6.089575
O	2.029858	2.029858	4.059717
Se	0.000000	0.000000	4.059717
Ta	2.029858	2.029858	6.089575
O	0.000000	6.089575	2.029858
O	2.029858	4.059717	2.029858
O	2.029858	6.089575	0.000000
Se	0.000000	4.059717	0.000000
Ta	2.029858	6.089575	2.029858
O	0.000000	6.089575	6.089575
O	2.029858	4.059717	6.089575
O	2.029858	6.089575	4.059717
Se	0.000000	4.059717	4.059717
Ta	2.029858	6.089575	6.089575
O	4.059717	2.029858	2.029858
O	6.089575	0.000000	2.029858
O	6.089575	2.029858	0.000000
Se	4.059717	0.000000	0.000000
Ta	6.089575	2.029858	2.029858
O	4.059717	2.029858	6.089575
O	6.089575	0.000000	6.089575
O	6.089575	2.029858	4.059717
Se	4.059717	0.000000	4.059717
Ta	6.089575	2.029858	6.089575
O	4.059717	6.089575	2.029858
O	6.089575	4.059717	2.029858
O	6.089575	6.089575	0.000000
Se	4.059717	4.059717	0.000000
Ta	6.089575	6.089575	2.029858
O	4.059717	6.089575	6.089575
O	6.089575	4.059717	6.089575
O	6.089575	6.089575	4.059717
Se	4.059717	4.059717	4.059717
Ta	6.089575	6.089575	6.089575
