40

Ge	0.000000	0.000000	0.000000
Mg	1.962888	1.962888	1.962888
O	0.000000	1.962888	1.962888
O	1.962888	0.000000	1.962888
O	1.962888	1.962888	0.000000
Ge	0.000000	0.000000	3.925777
Mg	1.962888	1.962888	5.888665
O	0.000000	1.962888	5.888665
O	1.962888	0.000000	5.888665
O	1.962888	1.962888	3.925777
Ge	0.000000	3.925777	0.000000
Mg	1.962888	5.888665	1.962888
O	0.000000	5.888665	1.962888
O	1.962888	3.925777	1.962888
O	1.962888	5.888665	0.000000
Ge	0.000000	3.925777	3.925777
Mg	1.962888	5.888665	5.888665
O	0.000000	5.888665	5.888665
O	1.962888	3.925777	5.888665
O	1.962888	5.888665	3.925777
Ge	3.925777	0.000000	0.000000
Mg	5.888665	1.962888	1.962888
O	3.925777	1.962888	1.962888
O	5.888665	0.000000	1.962888
O	5.888665	1.962888	0.000000
Ge	3.925777	0.000000	3.925777
Mg	5.888665	1.962888	5.888665
O	3.925777	1.962888	5.888665
O	5.888665	0.000000	5.888665
O	5.888665	1.962888	3.925777
Ge	3.925777	3.925777	0.000000
Mg	5.888665	5.888665	1.962888
O	3.925777	5.888665	1.962888
O	5.888665	3.925777	1.962888
O	5.888665	5.888665	0.000000
Ge	3.925777	3.925777	3.925777
Mg	5.888665	5.888665	5.888665
O	3.925777	5.888665	5.888665
O	5.888665	3.925777	5.888665
O	5.888665	5.888665	3.925777
