40

Gd	0.000000	0.000000	0.000000
O	2.202258	2.202258	0.000000
O	2.202258	0.000000	2.202258
O	0.000000	2.202258	2.202258
Pu	2.202258	2.202258	2.202258
Gd	0.000000	0.000000	4.404517
O	2.202258	2.202258	4.404517
O	2.202258	0.000000	6.606775
O	0.000000	2.202258	6.606775
Pu	2.202258	2.202258	6.606775
Gd	0.000000	4.404517	0.000000
O	2.202258	6.606775	0.000000
O	2.202258	4.404517	2.202258
O	0.000000	6.606775	2.202258
Pu	2.202258	6.606775	2.202258
Gd	0.000000	4.404517	4.404517
O	2.202258	6.606775	4.404517
O	2.202258	4.404517	6.606775
O	0.000000	6.606775	6.606775
Pu	2.202258	6.606775	6.606775
Gd	4.404517	0.000000	0.000000
O	6.606775	2.202258	0.000000
O	6.606775	0.000000	2.202258
O	4.404517	2.202258	2.202258
Pu	6.606775	2.202258	2.202258
Gd	4.404517	0.000000	4.404517
O	6.606775	2.202258	4.404517
O	6.606775	0.000000	6.606775
O	4.404517	2.202258	6.606775
Pu	6.606775	2.202258	6.606775
Gd	4.404517	4.404517	0.000000
O	6.606775	6.606775	0.000000
O	6.606775	4.404517	2.202258
O	4.404517	6.606775	2.202258
Pu	6.606775	6.606775	2.202258
Gd	4.404517	4.404517	4.404517
O	6.606775	6.606775	4.404517
O	6.606775	4.404517	6.606775
O	4.404517	6.606775	6.606775
Pu	6.606775	6.606775	6.606775
