40

Cd	0.000000	0.000000	0.000000
O	0.000000	1.901097	1.901097
O	1.901097	0.000000	1.901097
O	1.901097	1.901097	0.000000
S	1.901097	1.901097	1.901097
Cd	0.000000	0.000000	3.802193
O	0.000000	1.901097	5.703290
O	1.901097	0.000000	5.703290
O	1.901097	1.901097	3.802193
S	1.901097	1.901097	5.703290
Cd	0.000000	3.802193	0.000000
O	0.000000	5.703290	1.901097
O	1.901097	3.802193	1.901097
O	1.901097	5.703290	0.000000
S	1.901097	5.703290	1.901097
Cd	0.000000	3.802193	3.802193
O	0.000000	5.703290	5.703290
O	1.901097	3.802193	5.703290
O	1.901097	5.703290	3.802193
S	1.901097	5.703290	5.703290
Cd	3.802193	0.000000	0.000000
O	3.802193	1.901097	1.901097
O	5.703290	0.000000	1.901097
O	5.703290	1.901097	0.000000
S	5.703290	1.901097	1.901097
Cd	3.802193	0.000000	3.802193
O	3.802193	1.901097	5.703290
O	5.703290	0.000000	5.703290
O	5.703290	1.901097	3.802193
S	5.703290	1.901097	5.703290
Cd	3.802193	3.802193	0.000000
O	3.802193	5.703290	1.901097
O	5.703290	3.802193	1.901097
O	5.703290	5.703290	0.000000
S	5.703290	5.703290	1.901097
Cd	3.802193	3.802193	3.802193
O	3.802193	5.703290	5.703290
O	5.703290	3.802193	5.703290
O	5.703290	5.703290	3.802193
S	5.703290	5.703290	5.703290
