320

O	4.240215	1.100113	-1.100113
O	4.240215	-1.100113	1.100113
O	7.330867	1.508033	-1.508033
O	7.330867	-1.508033	1.508033
O	6.760061	-1.100113	-1.100113
O	3.992105	1.830729	-3.992105
O	3.992105	-3.992105	1.830729
O	3.669409	-1.508033	-1.508033
O	1.100113	1.100113	-4.240215
O	1.100113	-4.240215	1.100113
O	1.508033	-1.508033	-3.669409
O	1.508033	-3.669409	-1.508033
O	-1.100113	-1.100113	-4.240215
O	-1.100113	-4.240215	-1.100113
O	4.400025	-1.259923	-4.400025
O	4.400025	-4.400025	-1.259923
O	1.508033	1.508033	-7.330867
O	1.508033	-7.330867	1.508033
O	1.100113	-1.100113	-6.760061
O	1.100113	-6.760061	-1.100113
O	-1.830729	-3.992105	-3.992105
O	-1.508033	-1.508033	-7.330867
O	-1.508033	-7.330867	-1.508033
O	1.259923	-4.400025	-4.400025
Pr	5.500138	-0.000000	-2.750069
Pr	5.500138	-2.750069	0.000000
Pr	2.750069	-0.000000	-5.500138
Pr	2.750069	-5.500138	0.000000
Pr	-0.000000	-2.750069	-5.500138
Pr	-0.000000	-5.500138	-2.750069
Sb	2.691281	2.691281	-2.691281
Sb	3.014513	0.000000	-0.000000
Sb	2.691281	-2.691281	2.691281
Sb	7.985763	-0.000000	0.000000
Sb	0.000000	0.000000	-3.014513
Sb	0.000000	-3.014513	0.000000
Sb	-2.691281	-2.691281	-2.691281
Sb	2.808857	-2.808857	-2.808857
Sb	-0.000000	-0.000000	-7.985763
Sb	-0.000000	-7.985763	-0.000000
O	-1.259923	-4.400025	-6.600251
O	-1.259923	-6.600251	-4.400025
O	1.830729	-3.992105	-7.008171
O	1.830729	-7.008171	-3.992105
O	1.259923	-6.600251	-6.600251
O	-1.508033	-3.669409	-9.492243
O	-1.508033	-9.492243	-3.669409
O	-1.830729	-7.008171	-7.008171
O	-4.400025	-4.400025	-9.740353
O	-4.400025	-9.740353	-4.400025
O	-3.992105	-7.008171	-9.169547
O	-3.992105	-9.169547	-7.008171
O	-6.600251	-6.600251	-9.740353
O	-6.600251	-9.740353	-6.600251
O	-1.100113	-6.760061	-9.900163
O	-1.100113	-9.900163	-6.760061
O	-3.992105	-3.992105	-12.831006
O	-3.992105	-12.831006	-3.992105
O	-4.400025	-6.600251	-12.260199
O	-4.400025	-12.260199	-6.600251
O	-7.330867	-9.492243	-9.492243
O	-7.008171	-7.008171	-12.831006
O	-7.008171	-12.831006	-7.008171
O	-4.240215	-9.900163	-9.900163
Pr	0.000000	-5.500138	-8.250207
Pr	0.000000	-8.250207	-5.500138
Pr	-2.750069	-5.500138	-11.000276
Pr	-2.750069	-11.000276	-5.500138
Pr	-5.500138	-8.250207	-11.000276
Pr	-5.500138	-11.000276	-8.250207
Sb	-2.808857	-2.808857	-8.191419
Sb	-2.485625	-5.500138	-5.500138
Sb	-2.808857	-8.191419	-2.808857
Sb	2.485625	-5.500138	-5.500138
Sb	-5.500138	-5.500138	-8.514651
Sb	-5.500138	-8.514651	-5.500138
Sb	-8.191419	-8.191419	-8.191419
Sb	-2.691281	-8.308995	-8.308995
Sb	-5.500138	-5.500138	-13.485901
Sb	-5.500138	-13.485901	-5.500138
O	9.740353	-4.400025	4.400025
O	9.740353	-6.600251	6.600251
O	12.831006	-3.992105	3.992105
O	12.831006	-7.008171	7.008171
O	12.260199	-6.600251	4.400025
O	9.492243	-3.669409	1.508033
O	9.492243	-9.492243	7.330867
O	9.169547	-7.008171	3.992105
O	6.600251	-4.400025	1.259923
O	6.600251	-9.740353	6.600251
O	7.008171	-7.008171	1.830729
O	7.008171	-9.169547	3.992105
O	4.400025	-6.600251	1.259923
O	4.400025	-9.740353	4.400025
O	9.900163	-6.760061	1.100113
O	9.900163	-9.900163	4.240215
O	7.008171	-3.992105	-1.830729
O	7.008171	-12.831006	7.008171
O	6.600251	-6.600251	-1.259923
O	6.600251	-12.260199	4.400025
O	3.669409	-9.492243	1.508033
O	3.992105	-7.008171	-1.830729
O	3.992105	-12.831006	3.992105
O	6.760061	-9.900163	1.100113
Pr	11.000276	-5.500138	2.750069
Pr	11.000276	-8.250207	5.500138
Pr	8.250207	-5.500138	0.000000
Pr	8.250207	-11.000276	5.500138
Pr	5.500138	-8.250207	0.000000
Pr	5.500138	-11.000276	2.750069
Sb	8.191419	-2.808857	2.808857
Sb	8.514651	-5.500138	5.500138
Sb	8.191419	-8.191419	8.191419
Sb	13.485901	-5.500138	5.500138
Sb	5.500138	-5.500138	2.485625
Sb	5.500138	-8.514651	5.500138
Sb	2.808857	-8.191419	2.808857
Sb	8.308995	-8.308995	2.691281
Sb	5.500138	-5.500138	-2.485625
Sb	5.500138	-13.485901	5.500138
O	4.240215	-9.900163	-1.100113
O	4.240215	-12.100389	1.100113
O	7.330867	-9.492243	-1.508033
O	7.330867	-12.508309	1.508033
O	6.760061	-12.100389	-1.100113
O	3.992105	-9.169547	-3.992105
O	3.992105	-14.992381	1.830729
O	3.669409	-12.508309	-1.508033
O	1.100113	-9.900163	-4.240215
O	1.100113	-15.240491	1.100113
O	1.508033	-12.508309	-3.669409
O	1.508033	-14.669685	-1.508033
O	-1.100113	-12.100389	-4.240215
O	-1.100113	-15.240491	-1.100113
O	4.400025	-12.260199	-4.400025
O	4.400025	-15.400301	-1.259923
O	1.508033	-9.492243	-7.330867
O	1.508033	-18.331144	1.508033
O	1.100113	-12.100389	-6.760061
O	1.100113	-17.760337	-1.100113
O	-1.830729	-14.992381	-3.992105
O	-1.508033	-12.508309	-7.330867
O	-1.508033	-18.331144	-1.508033
O	1.259923	-15.400301	-4.400025
Pr	5.500138	-11.000276	-2.750069
Pr	5.500138	-13.750345	0.000000
Pr	2.750069	-11.000276	-5.500138
Pr	2.750069	-16.500414	0.000000
Pr	0.000000	-13.750345	-5.500138
Pr	0.000000	-16.500414	-2.750069
Sb	2.691281	-8.308995	-2.691281
Sb	3.014513	-11.000276	0.000000
Sb	2.691281	-13.691558	2.691281
Sb	7.985763	-11.000276	0.000000
Sb	0.000000	-11.000276	-3.014513
Sb	0.000000	-14.014789	0.000000
Sb	-2.691281	-13.691558	-2.691281
Sb	2.808857	-13.809133	-2.808857
Sb	0.000000	-11.000276	-7.985763
Sb	0.000000	-18.986040	0.000000
O	9.740353	6.600251	-6.600251
O	9.740353	4.400025	-4.400025
O	12.831006	7.008171	-7.008171
O	12.831006	3.992105	-3.992105
O	12.260199	4.400025	-6.600251
O	9.492243	7.330867	-9.492243
O	9.492243	1.508033	-3.669409
O	9.169547	3.992105	-7.008171
O	6.600251	6.600251	-9.740353
O	6.600251	1.259923	-4.400025
O	7.008171	3.992105	-9.169547
O	7.008171	1.830729	-7.008171
O	4.400025	4.400025	-9.740353
O	4.400025	1.259923	-6.600251
O	9.900163	4.240215	-9.900163
O	9.900163	1.100113	-6.760061
O	7.008171	7.008171	-12.831006
O	7.008171	-1.830729	-3.992105
O	6.600251	4.400025	-12.260199
O	6.600251	-1.259923	-6.600251
O	3.669409	1.508033	-9.492243
O	3.992105	3.992105	-12.831006
O	3.992105	-1.830729	-7.008171
O	6.760061	1.100113	-9.900163
Pr	11.000276	5.500138	-8.250207
Pr	11.000276	2.750069	-5.500138
Pr	8.250207	5.500138	-11.000276
Pr	8.250207	0.000000	-5.500138
Pr	5.500138	2.750069	-11.000276
Pr	5.500138	0.000000	-8.250207
Sb	8.191419	8.191419	-8.191419
Sb	8.514651	5.500138	-5.500138
Sb	8.191419	2.808857	-2.808857
Sb	13.485901	5.500138	-5.500138
Sb	5.500138	5.500138	-8.514651
Sb	5.500138	2.485625	-5.500138
Sb	2.808857	2.808857	-8.191419
Sb	8.308995	2.691281	-8.308995
Sb	5.500138	5.500138	-13.485901
Sb	5.500138	-2.485625	-5.500138
O	4.240215	1.100113	-12.100389
O	4.240215	-1.100113	-9.900163
O	7.330867	1.508033	-12.508309
O	7.330867	-1.508033	-9.492243
O	6.760061	-1.100113	-12.100389
O	3.992105	1.830729	-14.992381
O	3.992105	-3.992105	-9.169547
O	3.669409	-1.508033	-12.508309
O	1.100113	1.100113	-15.240491
O	1.100113	-4.240215	-9.900163
O	1.508033	-1.508033	-14.669685
O	1.508033	-3.669409	-12.508309
O	-1.100113	-1.100113	-15.240491
O	-1.100113	-4.240215	-12.100389
O	4.400025	-1.259923	-15.400301
O	4.400025	-4.400025	-12.260199
O	1.508033	1.508033	-18.331144
O	1.508033	-7.330867	-9.492243
O	1.100113	-1.100113	-17.760337
O	1.100113	-6.760061	-12.100389
O	-1.830729	-3.992105	-14.992381
O	-1.508033	-1.508033	-18.331144
O	-1.508033	-7.330867	-12.508309
O	1.259923	-4.400025	-15.400301
Pr	5.500138	0.000000	-13.750345
Pr	5.500138	-2.750069	-11.000276
Pr	2.750069	0.000000	-16.500414
Pr	2.750069	-5.500138	-11.000276
Pr	0.000000	-2.750069	-16.500414
Pr	0.000000	-5.500138	-13.750345
Sb	2.691281	2.691281	-13.691558
Sb	3.014513	0.000000	-11.000276
Sb	2.691281	-2.691281	-8.308995
Sb	7.985763	0.000000	-11.000276
Sb	0.000000	0.000000	-14.014789
Sb	0.000000	-3.014513	-11.000276
Sb	-2.691281	-2.691281	-13.691558
Sb	2.808857	-2.808857	-13.809133
Sb	0.000000	0.000000	-18.986040
Sb	0.000000	-7.985763	-11.000276
O	15.240491	1.100113	-1.100113
O	15.240491	-1.100113	1.100113
O	18.331144	1.508033	-1.508033
O	18.331144	-1.508033	1.508033
O	17.760337	-1.100113	-1.100113
O	14.992381	1.830729	-3.992105
O	14.992381	-3.992105	1.830729
O	14.669685	-1.508033	-1.508033
O	12.100389	1.100113	-4.240215
O	12.100389	-4.240215	1.100113
O	12.508309	-1.508033	-3.669409
O	12.508309	-3.669409	-1.508033
O	9.900163	-1.100113	-4.240215
O	9.900163	-4.240215	-1.100113
O	15.400301	-1.259923	-4.400025
O	15.400301	-4.400025	-1.259923
O	12.508309	1.508033	-7.330867
O	12.508309	-7.330867	1.508033
O	12.100389	-1.100113	-6.760061
O	12.100389	-6.760061	-1.100113
O	9.169547	-3.992105	-3.992105
O	9.492243	-1.508033	-7.330867
O	9.492243	-7.330867	-1.508033
O	12.260199	-4.400025	-4.400025
Pr	16.500414	0.000000	-2.750069
Pr	16.500414	-2.750069	0.000000
Pr	13.750345	0.000000	-5.500138
Pr	13.750345	-5.500138	0.000000
Pr	11.000276	-2.750069	-5.500138
Pr	11.000276	-5.500138	-2.750069
Sb	13.691558	2.691281	-2.691281
Sb	14.014789	0.000000	0.000000
Sb	13.691558	-2.691281	2.691281
Sb	18.986040	0.000000	0.000000
Sb	11.000276	0.000000	-3.014513
Sb	11.000276	-3.014513	0.000000
Sb	8.308995	-2.691281	-2.691281
Sb	13.809133	-2.808857	-2.808857
Sb	11.000276	0.000000	-7.985763
Sb	11.000276	-7.985763	0.000000
O	9.740353	-4.400025	-6.600251
O	9.740353	-6.600251	-4.400025
O	12.831006	-3.992105	-7.008171
O	12.831006	-7.008171	-3.992105
O	12.260199	-6.600251	-6.600251
O	9.492243	-3.669409	-9.492243
O	9.492243	-9.492243	-3.669409
O	9.169547	-7.008171	-7.008171
O	6.600251	-4.400025	-9.740353
O	6.600251	-9.740353	-4.400025
O	7.008171	-7.008171	-9.169547
O	7.008171	-9.169547	-7.008171
O	4.400025	-6.600251	-9.740353
O	4.400025	-9.740353	-6.600251
O	9.900163	-6.760061	-9.900163
O	9.900163	-9.900163	-6.760061
O	7.008171	-3.992105	-12.831006
O	7.008171	-12.831006	-3.992105
O	6.600251	-6.600251	-12.260199
O	6.600251	-12.260199	-6.600251
O	3.669409	-9.492243	-9.492243
O	3.992105	-7.008171	-12.831006
O	3.992105	-12.831006	-7.008171
O	6.760061	-9.900163	-9.900163
Pr	11.000276	-5.500138	-8.250207
Pr	11.000276	-8.250207	-5.500138
Pr	8.250207	-5.500138	-11.000276
Pr	8.250207	-11.000276	-5.500138
Pr	5.500138	-8.250207	-11.000276
Pr	5.500138	-11.000276	-8.250207
Sb	8.191419	-2.808857	-8.191419
Sb	8.514651	-5.500138	-5.500138
Sb	8.191419	-8.191419	-2.808857
Sb	13.485901	-5.500138	-5.500138
Sb	5.500138	-5.500138	-8.514651
Sb	5.500138	-8.514651	-5.500138
Sb	2.808857	-8.191419	-8.191419
Sb	8.308995	-8.308995	-8.308995
Sb	5.500138	-5.500138	-13.485901
Sb	5.500138	-13.485901	-5.500138
