40

Mo	0.000000	0.000000	0.000000
O	0.000000	1.992299	1.992299
O	1.992299	0.000000	1.992299
O	1.992299	1.992299	0.000000
Tc	1.992299	1.992299	1.992299
Mo	0.000000	0.000000	3.984598
O	0.000000	1.992299	5.976897
O	1.992299	0.000000	5.976897
O	1.992299	1.992299	3.984598
Tc	1.992299	1.992299	5.976897
Mo	0.000000	3.984598	0.000000
O	0.000000	5.976897	1.992299
O	1.992299	3.984598	1.992299
O	1.992299	5.976897	0.000000
Tc	1.992299	5.976897	1.992299
Mo	0.000000	3.984598	3.984598
O	0.000000	5.976897	5.976897
O	1.992299	3.984598	5.976897
O	1.992299	5.976897	3.984598
Tc	1.992299	5.976897	5.976897
Mo	3.984598	0.000000	0.000000
O	3.984598	1.992299	1.992299
O	5.976897	0.000000	1.992299
O	5.976897	1.992299	0.000000
Tc	5.976897	1.992299	1.992299
Mo	3.984598	0.000000	3.984598
O	3.984598	1.992299	5.976897
O	5.976897	0.000000	5.976897
O	5.976897	1.992299	3.984598
Tc	5.976897	1.992299	5.976897
Mo	3.984598	3.984598	0.000000
O	3.984598	5.976897	1.992299
O	5.976897	3.984598	1.992299
O	5.976897	5.976897	0.000000
Tc	5.976897	5.976897	1.992299
Mo	3.984598	3.984598	3.984598
O	3.984598	5.976897	5.976897
O	5.976897	3.984598	5.976897
O	5.976897	5.976897	3.984598
Tc	5.976897	5.976897	5.976897
