112

Hf	0.000000	0.000000	0.000000
Hf	2.415050	-2.426086	-2.426086
O	1.134707	1.134496	-1.134496
O	1.280343	-1.291590	-3.560583
O	3.549747	-1.291590	-1.291590
O	-1.280343	1.291590	-3.560583
O	3.695383	3.717676	-1.134496
O	3.695383	1.134496	-3.717676
O	1.134707	3.717676	-3.717676
O	6.110434	1.291590	-1.291590
Pu	-1.207520	-1.213043	-3.639129
Pu	6.037611	-1.213043	-1.213043
Pu	1.207520	1.213043	-3.639129
Pu	3.622570	1.213043	-1.213043
Hf	4.830092	4.852174	0.000000
Hf	7.245142	2.426087	-2.426086
O	5.964799	5.986670	-1.134496
O	6.110435	3.560584	-3.560583
O	8.379839	3.560584	-1.291590
O	3.549748	6.143764	-3.560583
O	8.525475	8.569850	-1.134496
O	8.525475	5.986670	-3.717676
O	5.964799	8.569850	-3.717676
O	10.940525	6.143764	-1.291590
Pu	3.622572	3.639131	-3.639129
Pu	10.867702	3.639131	-1.213043
Pu	6.037612	6.065217	-3.639129
Pu	8.452662	6.065217	-1.213043
Hf	-4.830092	0.000000	-4.852174
Hf	-2.415041	-2.426086	-7.278260
O	-3.695385	1.134496	-5.986670
O	-3.549749	-1.291590	-8.412756
O	-1.280344	-1.291590	-6.143764
O	-6.110435	1.291590	-8.412756
O	-1.134708	3.717676	-5.986670
O	-1.134708	1.134496	-8.569850
O	-3.695385	3.717676	-8.569850
O	1.280342	1.291590	-6.143764
Pu	-6.037612	-1.213043	-8.491303
Pu	1.207519	-1.213043	-6.065217
Pu	-3.622572	1.213043	-8.491303
Pu	-1.207521	1.213043	-6.065217
Hf	0.000000	4.852174	-4.852174
Hf	2.415050	2.426087	-7.278260
O	1.134707	5.986670	-5.986670
O	1.280343	3.560584	-8.412756
O	3.549747	3.560584	-6.143764
O	-1.280343	6.143764	-8.412756
O	3.695383	8.569850	-5.986670
O	3.695383	5.986670	-8.569850
O	1.134707	8.569850	-8.569850
O	6.110434	6.143764	-6.143764
Pu	-1.207520	3.639131	-8.491303
Pu	6.037611	3.639131	-6.065217
Pu	1.207520	6.065217	-8.491303
Pu	3.622570	6.065217	-6.065217
Hf	4.830092	-4.852174	0.000000
Hf	7.245142	-7.278260	-2.426086
O	5.964799	-3.717677	-1.134496
O	6.110435	-6.143764	-3.560583
O	8.379839	-6.143764	-1.291590
O	3.549748	-3.560584	-3.560583
O	8.525475	-1.134497	-1.134496
O	8.525475	-3.717677	-3.717676
O	5.964799	-1.134497	-3.717676
O	10.940525	-3.560584	-1.291590
Pu	3.622572	-6.065217	-3.639129
Pu	10.867702	-6.065217	-1.213043
Pu	6.037612	-3.639131	-3.639129
Pu	8.452662	-3.639131	-1.213043
Hf	9.660183	0.000000	0.000000
Hf	12.075234	-2.426086	-2.426086
O	10.794890	1.134496	-1.134496
O	10.940526	-1.291590	-3.560583
O	13.209931	-1.291590	-1.291590
O	8.379840	1.291590	-3.560583
O	13.355567	3.717676	-1.134496
O	13.355567	1.134496	-3.717676
O	10.794890	3.717676	-3.717676
O	15.770617	1.291590	-1.291590
Pu	8.452663	-1.213043	-3.639129
Pu	15.697794	-1.213043	-1.213043
Pu	10.867703	1.213043	-3.639129
Pu	13.282754	1.213043	-1.213043
Hf	0.000000	-4.852174	-4.852174
Hf	2.415050	-7.278260	-7.278260
O	1.134707	-3.717677	-5.986670
O	1.280343	-6.143764	-8.412756
O	3.549747	-6.143764	-6.143764
O	-1.280343	-3.560584	-8.412756
O	3.695383	-1.134497	-5.986670
O	3.695383	-3.717677	-8.569850
O	1.134707	-1.134497	-8.569850
O	6.110434	-3.560584	-6.143764
Pu	-1.207520	-6.065217	-8.491303
Pu	6.037611	-6.065217	-6.065217
Pu	1.207520	-3.639131	-8.491303
Pu	3.622570	-3.639131	-6.065217
Hf	4.830092	0.000000	-4.852174
Hf	7.245142	-2.426086	-7.278260
O	5.964799	1.134496	-5.986670
O	6.110435	-1.291590	-8.412756
O	8.379839	-1.291590	-6.143764
O	3.549748	1.291590	-8.412756
O	8.525475	3.717676	-5.986670
O	8.525475	1.134496	-8.569850
O	5.964799	3.717676	-8.569850
O	10.940525	1.291590	-6.143764
Pu	3.622572	-1.213043	-8.491303
Pu	10.867702	-1.213043	-6.065217
Pu	6.037612	1.213043	-8.491303
Pu	8.452662	1.213043	-6.065217
