40

As	1.879940	1.879940	1.879940
Co	0.000000	0.000000	0.000000
O	1.879940	0.000000	1.879940
O	0.000000	1.879940	1.879940
O	1.879940	1.879940	0.000000
As	1.879940	1.879940	5.639824
Co	0.000000	0.000000	3.759884
O	1.879940	0.000000	5.639824
O	0.000000	1.879940	5.639824
O	1.879940	1.879940	3.759884
As	1.879940	5.639824	1.879940
Co	0.000000	3.759884	0.000000
O	1.879940	3.759884	1.879940
O	0.000000	5.639824	1.879940
O	1.879940	5.639824	0.000000
As	1.879940	5.639824	5.639824
Co	0.000000	3.759884	3.759884
O	1.879940	3.759884	5.639824
O	0.000000	5.639824	5.639824
O	1.879940	5.639824	3.759884
As	5.639824	1.879940	1.879940
Co	3.759884	0.000000	0.000000
O	5.639824	0.000000	1.879940
O	3.759884	1.879940	1.879940
O	5.639824	1.879940	0.000000
As	5.639824	1.879940	5.639824
Co	3.759884	0.000000	3.759884
O	5.639824	0.000000	5.639824
O	3.759884	1.879940	5.639824
O	5.639824	1.879940	3.759884
As	5.639824	5.639824	1.879940
Co	3.759884	3.759884	0.000000
O	5.639824	3.759884	1.879940
O	3.759884	5.639824	1.879940
O	5.639824	5.639824	0.000000
As	5.639824	5.639824	5.639824
Co	3.759884	3.759884	3.759884
O	5.639824	3.759884	5.639824
O	3.759884	5.639824	5.639824
O	5.639824	5.639824	3.759884
