40

Br	0.000000	0.000000	0.000000
O	0.000000	1.972294	1.972294
O	1.972294	0.000000	1.972294
O	1.972294	1.972294	0.000000
Rh	1.972294	1.972294	1.972294
Br	0.000000	0.000000	3.944587
O	0.000000	1.972294	5.916881
O	1.972294	0.000000	5.916881
O	1.972294	1.972294	3.944587
Rh	1.972294	1.972294	5.916881
Br	0.000000	3.944587	0.000000
O	0.000000	5.916881	1.972294
O	1.972294	3.944587	1.972294
O	1.972294	5.916881	0.000000
Rh	1.972294	5.916881	1.972294
Br	0.000000	3.944587	3.944587
O	0.000000	5.916881	5.916881
O	1.972294	3.944587	5.916881
O	1.972294	5.916881	3.944587
Rh	1.972294	5.916881	5.916881
Br	3.944587	0.000000	0.000000
O	3.944587	1.972294	1.972294
O	5.916881	0.000000	1.972294
O	5.916881	1.972294	0.000000
Rh	5.916881	1.972294	1.972294
Br	3.944587	0.000000	3.944587
O	3.944587	1.972294	5.916881
O	5.916881	0.000000	5.916881
O	5.916881	1.972294	3.944587
Rh	5.916881	1.972294	5.916881
Br	3.944587	3.944587	0.000000
O	3.944587	5.916881	1.972294
O	5.916881	3.944587	1.972294
O	5.916881	5.916881	0.000000
Rh	5.916881	5.916881	1.972294
Br	3.944587	3.944587	3.944587
O	3.944587	5.916881	5.916881
O	5.916881	3.944587	5.916881
O	5.916881	5.916881	3.944587
Rh	5.916881	5.916881	5.916881
