40

Br	2.020577	2.020577	2.020577
O	0.000000	2.020577	2.020577
O	2.020577	0.000000	2.020577
O	2.020577	2.020577	0.000000
Rh	0.000000	0.000000	0.000000
Br	2.020577	2.020577	6.061730
O	0.000000	2.020577	6.061730
O	2.020577	0.000000	6.061730
O	2.020577	2.020577	4.041154
Rh	0.000000	0.000000	4.041154
Br	2.020577	6.061730	2.020577
O	0.000000	6.061730	2.020577
O	2.020577	4.041154	2.020577
O	2.020577	6.061730	0.000000
Rh	0.000000	4.041154	0.000000
Br	2.020577	6.061730	6.061730
O	0.000000	6.061730	6.061730
O	2.020577	4.041154	6.061730
O	2.020577	6.061730	4.041154
Rh	0.000000	4.041154	4.041154
Br	6.061730	2.020577	2.020577
O	4.041154	2.020577	2.020577
O	6.061730	0.000000	2.020577
O	6.061730	2.020577	0.000000
Rh	4.041154	0.000000	0.000000
Br	6.061730	2.020577	6.061730
O	4.041154	2.020577	6.061730
O	6.061730	0.000000	6.061730
O	6.061730	2.020577	4.041154
Rh	4.041154	0.000000	4.041154
Br	6.061730	6.061730	2.020577
O	4.041154	6.061730	2.020577
O	6.061730	4.041154	2.020577
O	6.061730	6.061730	0.000000
Rh	4.041154	4.041154	0.000000
Br	6.061730	6.061730	6.061730
O	4.041154	6.061730	6.061730
O	6.061730	4.041154	6.061730
O	6.061730	6.061730	4.041154
Rh	4.041154	4.041154	4.041154
