112

Li	0.000000	0.000000	0.000000
Li	2.069663	-2.068613	-2.068613
O	1.024202	1.022373	-1.022373
O	1.045451	-1.046240	-3.090986
O	3.093865	-1.046240	-1.046240
O	-1.045451	1.046240	-3.090986
O	3.115114	3.114843	-1.022373
O	3.115114	1.022373	-3.114843
O	1.024202	3.114843	-3.114843
O	5.184777	1.046240	-1.046240
Re	-1.034827	-1.034302	-3.102915
Re	1.034827	1.034302	-3.102915
Re	3.104489	1.034302	-1.034302
Re	5.174152	-1.034302	-1.034302
Li	4.139320	4.137223	0.000000
Li	6.208983	2.068610	-2.068613
O	5.163522	5.159597	-1.022373
O	5.184771	3.090984	-3.090986
O	7.233185	3.090984	-1.046240
O	3.093869	5.183463	-3.090986
O	7.254434	7.252066	-1.022373
O	7.254434	5.159597	-3.114843
O	5.163522	7.252066	-3.114843
O	9.324097	5.183463	-1.046240
Re	3.104494	3.102922	-3.102915
Re	5.174147	5.171525	-3.102915
Re	7.243810	5.171525	-1.034302
Re	9.313473	3.102922	-1.034302
Li	-4.139320	0.000000	-4.137223
Li	-2.069657	-2.068613	-6.205836
O	-3.115118	1.022373	-5.159597
O	-3.093869	-1.046240	-7.228210
O	-1.045455	-1.046240	-5.183463
O	-5.184771	1.046240	-7.228210
O	-1.024206	3.114843	-5.159597
O	-1.024206	1.022373	-7.252066
O	-3.115118	3.114843	-7.252066
O	1.045457	1.046240	-5.183463
Re	-5.174147	-1.034302	-7.240138
Re	-3.104494	1.034302	-7.240138
Re	-1.034831	1.034302	-5.171525
Re	1.034832	-1.034302	-5.171525
Li	0.000000	4.137223	-4.137223
Li	2.069663	2.068610	-6.205836
O	1.024202	5.159597	-5.159597
O	1.045451	3.090984	-7.228210
O	3.093865	3.090984	-5.183463
O	-1.045451	5.183463	-7.228210
O	3.115114	7.252066	-5.159597
O	3.115114	5.159597	-7.252066
O	1.024202	7.252066	-7.252066
O	5.184777	5.183463	-5.183463
Re	-1.034827	3.102922	-7.240138
Re	1.034827	5.171525	-7.240138
Re	3.104489	5.171525	-5.171525
Re	5.174152	3.102922	-5.171525
Li	4.139320	-4.137223	0.000000
Li	6.208983	-6.205836	-2.068613
O	5.163522	-3.114850	-1.022373
O	5.184771	-5.183463	-3.090986
O	7.233185	-5.183463	-1.046240
O	3.093869	-3.090984	-3.090986
O	7.254434	-1.022381	-1.022373
O	7.254434	-3.114850	-3.114843
O	5.163522	-1.022381	-3.114843
O	9.324097	-3.090984	-1.046240
Re	3.104494	-5.171525	-3.102915
Re	5.174147	-3.102922	-3.102915
Re	7.243810	-3.102922	-1.034302
Re	9.313473	-5.171525	-1.034302
Li	8.278640	0.000000	0.000000
Li	10.348303	-2.068613	-2.068613
O	9.302842	1.022373	-1.022373
O	9.324092	-1.046240	-3.090986
O	11.372505	-1.046240	-1.046240
O	7.233189	1.046240	-3.090986
O	11.393755	3.114843	-1.022373
O	11.393755	1.022373	-3.114843
O	9.302842	3.114843	-3.114843
O	13.463418	1.046240	-1.046240
Re	7.243814	-1.034302	-3.102915
Re	9.313467	1.034302	-3.102915
Re	11.383130	1.034302	-1.034302
Re	13.452793	-1.034302	-1.034302
Li	0.000000	-4.137223	-4.137223
Li	2.069663	-6.205836	-6.205836
O	1.024202	-3.114850	-5.159597
O	1.045451	-5.183463	-7.228210
O	3.093865	-5.183463	-5.183463
O	-1.045451	-3.090984	-7.228210
O	3.115114	-1.022381	-5.159597
O	3.115114	-3.114850	-7.252066
O	1.024202	-1.022381	-7.252066
O	5.184777	-3.090984	-5.183463
Re	-1.034827	-5.171525	-7.240138
Re	1.034827	-3.102922	-7.240138
Re	3.104489	-3.102922	-5.171525
Re	5.174152	-5.171525	-5.171525
Li	4.139320	0.000000	-4.137223
Li	6.208983	-2.068613	-6.205836
O	5.163522	1.022373	-5.159597
O	5.184771	-1.046240	-7.228210
O	7.233185	-1.046240	-5.183463
O	3.093869	1.046240	-7.228210
O	7.254434	3.114843	-5.159597
O	7.254434	1.022373	-7.252066
O	5.163522	3.114843	-7.252066
O	9.324097	1.046240	-5.183463
Re	3.104494	-1.034302	-7.240138
Re	5.174147	1.034302	-7.240138
Re	7.243810	1.034302	-5.171525
Re	9.313473	-1.034302	-5.171525
