112

O	-1.067751	1.067469	-3.839131
O	3.837666	-1.067469	-1.067469
O	1.067751	-1.067469	-3.839131
O	1.384957	1.385836	-1.385836
O	5.973169	1.067469	-1.067469
O	1.384957	3.520764	-3.520764
O	3.520460	3.520764	-1.385836
O	3.520460	1.385836	-3.520764
Sr	0.000000	0.000000	0.000000
Sr	2.452709	-2.453295	-2.453295
Tb	-1.226354	-1.226653	-3.679948
Tb	6.131761	-1.226653	-1.226653
Tb	1.226354	1.226653	-3.679948
Tb	3.679063	1.226653	-1.226653
O	3.837661	5.974067	-3.839131
O	8.743078	3.839128	-1.067469
O	5.973164	3.839128	-3.839131
O	6.290370	6.292433	-1.385836
O	10.878581	5.974067	-1.067469
O	6.290370	8.427362	-3.520764
O	8.425873	8.427362	-1.385836
O	8.425873	6.292433	-3.520764
Sr	4.905413	4.906597	0.000000
Sr	7.358121	2.453302	-2.453295
Tb	3.679058	3.679945	-3.679948
Tb	11.037174	3.679945	-1.226653
Tb	6.131767	6.133250	-3.679948
Tb	8.584476	6.133250	-1.226653
O	-5.973164	1.067469	-8.745728
O	-1.067747	-1.067469	-5.974067
O	-3.837661	-1.067469	-8.745728
O	-3.520456	1.385836	-6.292433
O	1.067756	1.067469	-5.974067
O	-3.520456	3.520764	-8.427362
O	-1.384953	3.520764	-6.292433
O	-1.384953	1.385836	-8.427362
Sr	-4.905413	0.000000	-4.906597
Sr	-2.452704	-2.453295	-7.359893
Tb	-6.131767	-1.226653	-8.586545
Tb	1.226349	-1.226653	-6.133250
Tb	-3.679058	1.226653	-8.586545
Tb	-1.226350	1.226653	-6.133250
O	-1.067751	5.974067	-8.745728
O	3.837666	3.839128	-5.974067
O	1.067751	3.839128	-8.745728
O	1.384957	6.292433	-6.292433
O	5.973169	5.974067	-5.974067
O	1.384957	8.427362	-8.427362
O	3.520460	8.427362	-6.292433
O	3.520460	6.292433	-8.427362
Sr	0.000000	4.906597	-4.906597
Sr	2.452709	2.453302	-7.359893
Tb	-1.226354	3.679945	-8.586545
Tb	6.131761	3.679945	-6.133250
Tb	1.226354	6.133250	-8.586545
Tb	3.679063	6.133250	-6.133250
O	3.837661	-3.839128	-3.839131
O	8.743078	-5.974067	-1.067469
O	5.973164	-5.974067	-3.839131
O	6.290370	-3.520762	-1.385836
O	10.878581	-3.839128	-1.067469
O	6.290370	-1.385833	-3.520764
O	8.425873	-1.385833	-1.385836
O	8.425873	-3.520762	-3.520764
Sr	4.905413	-4.906597	0.000000
Sr	7.358121	-7.359893	-2.453295
Tb	3.679058	-6.133250	-3.679948
Tb	11.037174	-6.133250	-1.226653
Tb	6.131767	-3.679945	-3.679948
Tb	8.584476	-3.679945	-1.226653
O	8.743074	1.067469	-3.839131
O	13.648491	-1.067469	-1.067469
O	10.878577	-1.067469	-3.839131
O	11.195783	1.385836	-1.385836
O	15.783994	1.067469	-1.067469
O	11.195783	3.520764	-3.520764
O	13.331285	3.520764	-1.385836
O	13.331285	1.385836	-3.520764
Sr	9.810825	0.000000	0.000000
Sr	12.263534	-2.453295	-2.453295
Tb	8.584471	-1.226653	-3.679948
Tb	15.942587	-1.226653	-1.226653
Tb	11.037180	1.226653	-3.679948
Tb	13.489888	1.226653	-1.226653
O	-1.067751	-3.839128	-8.745728
O	3.837666	-5.974067	-5.974067
O	1.067751	-5.974067	-8.745728
O	1.384957	-3.520762	-6.292433
O	5.973169	-3.839128	-5.974067
O	1.384957	-1.385833	-8.427362
O	3.520460	-1.385833	-6.292433
O	3.520460	-3.520762	-8.427362
Sr	0.000000	-4.906597	-4.906597
Sr	2.452709	-7.359893	-7.359893
Tb	-1.226354	-6.133250	-8.586545
Tb	6.131761	-6.133250	-6.133250
Tb	1.226354	-3.679945	-8.586545
Tb	3.679063	-3.679945	-6.133250
O	3.837661	1.067469	-8.745728
O	8.743078	-1.067469	-5.974067
O	5.973164	-1.067469	-8.745728
O	6.290370	1.385836	-6.292433
O	10.878581	1.067469	-5.974067
O	6.290370	3.520764	-8.427362
O	8.425873	3.520764	-6.292433
O	8.425873	1.385836	-8.427362
Sr	4.905413	0.000000	-4.906597
Sr	7.358121	-2.453295	-7.359893
Tb	3.679058	-1.226653	-8.586545
Tb	11.037174	-1.226653	-6.133250
Tb	6.131767	1.226653	-8.586545
Tb	8.584476	1.226653	-6.133250
