40

N	1.739918	1.739918	1.739918
O	0.000000	1.739918	1.739918
O	1.739918	0.000000	1.739918
O	1.739918	1.739918	0.000000
V	0.000000	0.000000	0.000000
N	1.739918	1.739918	5.219755
O	0.000000	1.739918	5.219755
O	1.739918	0.000000	5.219755
O	1.739918	1.739918	3.479837
V	0.000000	0.000000	3.479837
N	1.739918	5.219755	1.739918
O	0.000000	5.219755	1.739918
O	1.739918	3.479837	1.739918
O	1.739918	5.219755	0.000000
V	0.000000	3.479837	0.000000
N	1.739918	5.219755	5.219755
O	0.000000	5.219755	5.219755
O	1.739918	3.479837	5.219755
O	1.739918	5.219755	3.479837
V	0.000000	3.479837	3.479837
N	5.219755	1.739918	1.739918
O	3.479837	1.739918	1.739918
O	5.219755	0.000000	1.739918
O	5.219755	1.739918	0.000000
V	3.479837	0.000000	0.000000
N	5.219755	1.739918	5.219755
O	3.479837	1.739918	5.219755
O	5.219755	0.000000	5.219755
O	5.219755	1.739918	3.479837
V	3.479837	0.000000	3.479837
N	5.219755	5.219755	1.739918
O	3.479837	5.219755	1.739918
O	5.219755	3.479837	1.739918
O	5.219755	5.219755	0.000000
V	3.479837	3.479837	0.000000
N	5.219755	5.219755	5.219755
O	3.479837	5.219755	5.219755
O	5.219755	3.479837	5.219755
O	5.219755	5.219755	3.479837
V	3.479837	3.479837	3.479837
