112

Eu	0.000000	0.000000	0.000000
Eu	2.517274	-2.517699	-2.517699
O	3.887517	-1.146707	-1.146707
O	-1.147041	1.146707	-3.888701
O	1.147041	-1.146707	-3.888701
O	1.370243	1.370992	-1.370992
O	6.181589	1.146707	-1.146707
O	1.370243	3.664406	-3.664406
O	3.664315	3.664406	-1.370992
O	3.664315	1.370992	-3.664406
Pr	-1.258642	-1.258854	-3.776553
Pr	6.293200	-1.258854	-1.258854
Pr	3.775916	1.258854	-1.258854
Pr	1.258642	1.258854	-3.776553
Eu	5.034558	5.035405	0.000000
Eu	7.551832	2.517706	-2.517699
O	8.922075	3.888699	-1.146707
O	3.887517	6.182112	-3.888701
O	6.181598	3.888699	-3.888701
O	6.404801	6.406398	-1.370992
O	11.216147	6.182112	-1.146707
O	6.404801	8.699811	-3.664406
O	8.698873	8.699811	-1.370992
O	8.698873	6.406398	-3.664406
Pr	3.775916	3.776551	-3.776553
Pr	11.327758	3.776551	-1.258854
Pr	8.810474	6.294260	-1.258854
Pr	6.293200	6.294260	-3.776553
Eu	-5.034558	0.000000	-5.035405
Eu	-2.517283	-2.517699	-7.553104
O	-1.147040	-1.146707	-6.182112
O	-6.181598	1.146707	-8.924106
O	-3.887517	-1.146707	-8.924106
O	-3.664314	1.370992	-6.406398
O	1.147031	1.146707	-6.182112
O	-3.664314	3.664406	-8.699811
O	-1.370243	3.664406	-6.406398
O	-1.370243	1.370992	-8.699811
Pr	-6.293200	-1.258854	-8.811959
Pr	1.258643	-1.258854	-6.294260
Pr	-1.258641	1.258854	-6.294260
Pr	-3.775916	1.258854	-8.811959
Eu	0.000000	5.035405	-5.035405
Eu	2.517274	2.517706	-7.553104
O	3.887517	3.888699	-6.182112
O	-1.147041	6.182112	-8.924106
O	1.147041	3.888699	-8.924106
O	1.370243	6.406398	-6.406398
O	6.181589	6.182112	-6.182112
O	1.370243	8.699811	-8.699811
O	3.664315	8.699811	-6.406398
O	3.664315	6.406398	-8.699811
Pr	-1.258642	3.776551	-8.811959
Pr	6.293200	3.776551	-6.294260
Pr	3.775916	6.294260	-6.294260
Pr	1.258642	6.294260	-8.811959
Eu	5.034558	-5.035405	0.000000
Eu	7.551832	-7.553104	-2.517699
O	8.922075	-6.182112	-1.146707
O	3.887517	-3.888699	-3.888701
O	6.181598	-6.182112	-3.888701
O	6.404801	-3.664413	-1.370992
O	11.216147	-3.888699	-1.146707
O	6.404801	-1.371000	-3.664406
O	8.698873	-1.371000	-1.370992
O	8.698873	-3.664413	-3.664406
Pr	3.775916	-6.294260	-3.776553
Pr	11.327758	-6.294260	-1.258854
Pr	8.810474	-3.776551	-1.258854
Pr	6.293200	-3.776551	-3.776553
Eu	10.069115	0.000000	0.000000
Eu	12.586389	-2.517699	-2.517699
O	13.956633	-1.146707	-1.146707
O	8.922074	1.146707	-3.888701
O	11.216156	-1.146707	-3.888701
O	11.439358	1.370992	-1.370992
O	16.250704	1.146707	-1.146707
O	11.439358	3.664406	-3.664406
O	13.733430	3.664406	-1.370992
O	13.733430	1.370992	-3.664406
Pr	8.810473	-1.258854	-3.776553
Pr	16.362315	-1.258854	-1.258854
Pr	13.845031	1.258854	-1.258854
Pr	11.327757	1.258854	-3.776553
Eu	0.000000	-5.035405	-5.035405
Eu	2.517274	-7.553104	-7.553104
O	3.887517	-6.182112	-6.182112
O	-1.147041	-3.888699	-8.924106
O	1.147041	-6.182112	-8.924106
O	1.370243	-3.664413	-6.406398
O	6.181589	-3.888699	-6.182112
O	1.370243	-1.371000	-8.699811
O	3.664315	-1.371000	-6.406398
O	3.664315	-3.664413	-8.699811
Pr	-1.258642	-6.294260	-8.811959
Pr	6.293200	-6.294260	-6.294260
Pr	3.775916	-3.776551	-6.294260
Pr	1.258642	-3.776551	-8.811959
Eu	5.034558	0.000000	-5.035405
Eu	7.551832	-2.517699	-7.553104
O	8.922075	-1.146707	-6.182112
O	3.887517	1.146707	-8.924106
O	6.181598	-1.146707	-8.924106
O	6.404801	1.370992	-6.406398
O	11.216147	1.146707	-6.182112
O	6.404801	3.664406	-8.699811
O	8.698873	3.664406	-6.406398
O	8.698873	1.370992	-8.699811
Pr	3.775916	-1.258854	-8.811959
Pr	11.327758	-1.258854	-6.294260
Pr	8.810474	1.258854	-6.294260
Pr	6.293200	1.258854	-8.811959
