40

O	1.986780	1.986780	0.000000
O	0.000000	1.986780	1.986780
O	1.986780	0.000000	1.986780
Sm_3	0.000000	0.000000	0.000000
W_pv	1.986780	1.986780	1.986780
O	1.986780	1.986780	3.973572
O	0.000000	1.986780	5.960352
O	1.986780	0.000000	5.960352
Sm_3	0.000000	0.000000	3.973572
W_pv	1.986780	1.986780	5.960352
O	1.986780	5.960352	0.000000
O	0.000000	5.960352	1.986780
O	1.986780	3.973572	1.986780
Sm_3	0.000000	3.973572	0.000000
W_pv	1.986780	5.960352	1.986780
O	1.986780	5.960352	3.973572
O	0.000000	5.960352	5.960352
O	1.986780	3.973572	5.960352
Sm_3	0.000000	3.973572	3.973572
W_pv	1.986780	5.960352	5.960352
O	5.960352	1.986780	0.000000
O	3.973572	1.986780	1.986780
O	5.960352	0.000000	1.986780
Sm_3	3.973572	0.000000	0.000000
W_pv	5.960352	1.986780	1.986780
O	5.960352	1.986780	3.973572
O	3.973572	1.986780	5.960352
O	5.960352	0.000000	5.960352
Sm_3	3.973572	0.000000	3.973572
W_pv	5.960352	1.986780	5.960352
O	5.960352	5.960352	0.000000
O	3.973572	5.960352	1.986780
O	5.960352	3.973572	1.986780
Sm_3	3.973572	3.973572	0.000000
W_pv	5.960352	5.960352	1.986780
O	5.960352	5.960352	3.973572
O	3.973572	5.960352	5.960352
O	5.960352	3.973572	5.960352
Sm_3	3.973572	3.973572	3.973572
W_pv	5.960352	5.960352	5.960352
