40

Cr	1.886626	1.886626	1.886626
O	1.886626	1.886626	0.000000
O	0.000000	1.886626	1.886626
O	1.886626	0.000000	1.886626
Sm	-0.015000	0.000000	0.000000
Cr	1.886626	1.886626	5.659879
O	1.886626	1.886626	3.773253
O	0.000000	1.886626	5.659879
O	1.886626	0.000000	5.659879
Sm	-0.015000	0.000000	3.773253
Cr	1.886626	5.659879	1.886626
O	1.886626	5.659879	0.000000
O	0.000000	5.659879	1.886626
O	1.886626	3.773253	1.886626
Sm	-0.015000	3.773253	0.000000
Cr	1.886626	5.659879	5.659879
O	1.886626	5.659879	3.773253
O	0.000000	5.659879	5.659879
O	1.886626	3.773253	5.659879
Sm	-0.015000	3.773253	3.773253
Cr	5.659879	1.886626	1.886626
O	5.659879	1.886626	0.000000
O	3.773253	1.886626	1.886626
O	5.659879	0.000000	1.886626
Sm	3.758253	0.000000	0.000000
Cr	5.659879	1.886626	5.659879
O	5.659879	1.886626	3.773253
O	3.773253	1.886626	5.659879
O	5.659879	0.000000	5.659879
Sm	3.758253	0.000000	3.773253
Cr	5.659879	5.659879	1.886626
O	5.659879	5.659879	0.000000
O	3.773253	5.659879	1.886626
O	5.659879	3.773253	1.886626
Sm	3.758253	3.773253	0.000000
Cr	5.659879	5.659879	5.659879
O	5.659879	5.659879	3.773253
O	3.773253	5.659879	5.659879
O	5.659879	3.773253	5.659879
Sm	3.758253	3.773253	3.773253
