40

Cr	0.000000	0.000000	0.000000
O	2.199685	2.199685	0.000000
O	2.199685	0.000000	2.199685
O	0.000000	2.199685	2.199685
Sm	2.199685	2.199685	2.199685
Cr	0.000000	0.000000	4.399378
O	2.199685	2.199685	4.399378
O	2.199685	0.000000	6.599063
O	0.000000	2.199685	6.599063
Sm	2.199685	2.199685	6.599063
Cr	0.000000	4.399378	0.000000
O	2.199685	6.599063	0.000000
O	2.199685	4.399378	2.199685
O	0.000000	6.599063	2.199685
Sm	2.199685	6.599063	2.199685
Cr	0.000000	4.399378	4.399378
O	2.199685	6.599063	4.399378
O	2.199685	4.399378	6.599063
O	0.000000	6.599063	6.599063
Sm	2.199685	6.599063	6.599063
Cr	4.399378	0.000000	0.000000
O	6.599063	2.199685	0.000000
O	6.599063	0.000000	2.199685
O	4.399378	2.199685	2.199685
Sm	6.599063	2.199685	2.199685
Cr	4.399378	0.000000	4.399378
O	6.599063	2.199685	4.399378
O	6.599063	0.000000	6.599063
O	4.399378	2.199685	6.599063
Sm	6.599063	2.199685	6.599063
Cr	4.399378	4.399378	0.000000
O	6.599063	6.599063	0.000000
O	6.599063	4.399378	2.199685
O	4.399378	6.599063	2.199685
Sm	6.599063	6.599063	2.199685
Cr	4.399378	4.399378	4.399378
O	6.599063	6.599063	4.399378
O	6.599063	4.399378	6.599063
O	4.399378	6.599063	6.599063
Sm	6.599063	6.599063	6.599063
