40

O	2.013283	2.013283	0.000000
O	0.000000	2.013283	2.013283
O	2.013283	0.000000	2.013283
Sn	2.013283	2.013283	2.013283
W	0.000000	0.000000	0.000000
O	2.013283	2.013283	4.026557
O	0.000000	2.013283	6.039840
O	2.013283	0.000000	6.039840
Sn	2.013283	2.013283	6.039840
W	0.000000	0.000000	4.026557
O	2.013283	6.039840	0.000000
O	0.000000	6.039840	2.013283
O	2.013283	4.026557	2.013283
Sn	2.013283	6.039840	2.013283
W	0.000000	4.026557	0.000000
O	2.013283	6.039840	4.026557
O	0.000000	6.039840	6.039840
O	2.013283	4.026557	6.039840
Sn	2.013283	6.039840	6.039840
W	0.000000	4.026557	4.026557
O	6.039840	2.013283	0.000000
O	4.026557	2.013283	2.013283
O	6.039840	0.000000	2.013283
Sn	6.039840	2.013283	2.013283
W	4.026557	0.000000	0.000000
O	6.039840	2.013283	4.026557
O	4.026557	2.013283	6.039840
O	6.039840	0.000000	6.039840
Sn	6.039840	2.013283	6.039840
W	4.026557	0.000000	4.026557
O	6.039840	6.039840	0.000000
O	4.026557	6.039840	2.013283
O	6.039840	4.026557	2.013283
Sn	6.039840	6.039840	2.013283
W	4.026557	4.026557	0.000000
O	6.039840	6.039840	4.026557
O	4.026557	6.039840	6.039840
O	6.039840	4.026557	6.039840
Sn	6.039840	6.039840	6.039840
W	4.026557	4.026557	4.026557
