40

O	0.000000	2.017967	2.017967
O	2.017967	0.000000	2.017967
O	2.017967	2.017967	0.000000
Sn	0.000000	0.000000	0.000000
W	2.017967	2.017967	2.017967
O	0.000000	2.017967	6.053902
O	2.017967	0.000000	6.053902
O	2.017967	2.017967	4.035935
Sn	0.000000	0.000000	4.035935
W	2.017967	2.017967	6.053902
O	0.000000	6.053902	2.017967
O	2.017967	4.035935	2.017967
O	2.017967	6.053902	0.000000
Sn	0.000000	4.035935	0.000000
W	2.017967	6.053902	2.017967
O	0.000000	6.053902	6.053902
O	2.017967	4.035935	6.053902
O	2.017967	6.053902	4.035935
Sn	0.000000	4.035935	4.035935
W	2.017967	6.053902	6.053902
O	4.035935	2.017967	2.017967
O	6.053902	0.000000	2.017967
O	6.053902	2.017967	0.000000
Sn	4.035935	0.000000	0.000000
W	6.053902	2.017967	2.017967
O	4.035935	2.017967	6.053902
O	6.053902	0.000000	6.053902
O	6.053902	2.017967	4.035935
Sn	4.035935	0.000000	4.035935
W	6.053902	2.017967	6.053902
O	4.035935	6.053902	2.017967
O	6.053902	4.035935	2.017967
O	6.053902	6.053902	0.000000
Sn	4.035935	4.035935	0.000000
W	6.053902	6.053902	2.017967
O	4.035935	6.053902	6.053902
O	6.053902	4.035935	6.053902
O	6.053902	6.053902	4.035935
Sn	4.035935	4.035935	4.035935
W	6.053902	6.053902	6.053902
