40

Nb	2.045134	2.045134	2.045134
O	0.000000	2.045134	2.045134
O	2.045134	0.000000	2.045134
O	2.045134	2.045134	0.000000
Tl	0.000000	0.000000	0.000000
Nb	2.045134	2.045134	6.135401
O	0.000000	2.045134	6.135401
O	2.045134	0.000000	6.135401
O	2.045134	2.045134	4.090267
Tl	0.000000	0.000000	4.090267
Nb	2.045134	6.135401	2.045134
O	0.000000	6.135401	2.045134
O	2.045134	4.090267	2.045134
O	2.045134	6.135401	0.000000
Tl	0.000000	4.090267	0.000000
Nb	2.045134	6.135401	6.135401
O	0.000000	6.135401	6.135401
O	2.045134	4.090267	6.135401
O	2.045134	6.135401	4.090267
Tl	0.000000	4.090267	4.090267
Nb	6.135401	2.045134	2.045134
O	4.090267	2.045134	2.045134
O	6.135401	0.000000	2.045134
O	6.135401	2.045134	0.000000
Tl	4.090267	0.000000	0.000000
Nb	6.135401	2.045134	6.135401
O	4.090267	2.045134	6.135401
O	6.135401	0.000000	6.135401
O	6.135401	2.045134	4.090267
Tl	4.090267	0.000000	4.090267
Nb	6.135401	6.135401	2.045134
O	4.090267	6.135401	2.045134
O	6.135401	4.090267	2.045134
O	6.135401	6.135401	0.000000
Tl	4.090267	4.090267	0.000000
Nb	6.135401	6.135401	6.135401
O	4.090267	6.135401	6.135401
O	6.135401	4.090267	6.135401
O	6.135401	6.135401	4.090267
Tl	4.090267	4.090267	4.090267
