40

Mg	1.990250	1.990250	1.990250
Pb	0.000000	0.000000	0.000000
O	1.990250	1.990250	0.000000
O	1.990250	0.000000	1.990250
O	0.000000	1.990250	1.990250
Mg	1.990250	1.990250	5.970758
Pb	0.000000	0.000000	3.980508
O	1.990250	1.990250	3.980508
O	1.990250	0.000000	5.970758
O	0.000000	1.990250	5.970758
Mg	1.990250	5.970758	1.990250
Pb	0.000000	3.980508	0.000000
O	1.990250	5.970758	0.000000
O	1.990250	3.980508	1.990250
O	0.000000	5.970758	1.990250
Mg	1.990250	5.970758	5.970758
Pb	0.000000	3.980508	3.980508
O	1.990250	5.970758	3.980508
O	1.990250	3.980508	5.970758
O	0.000000	5.970758	5.970758
Mg	5.970758	1.990250	1.990250
Pb	3.980508	0.000000	0.000000
O	5.970758	1.990250	0.000000
O	5.970758	0.000000	1.990250
O	3.980508	1.990250	1.990250
Mg	5.970758	1.990250	5.970758
Pb	3.980508	0.000000	3.980508
O	5.970758	1.990250	3.980508
O	5.970758	0.000000	5.970758
O	3.980508	1.990250	5.970758
Mg	5.970758	5.970758	1.990250
Pb	3.980508	3.980508	0.000000
O	5.970758	5.970758	0.000000
O	5.970758	3.980508	1.990250
O	3.980508	5.970758	1.990250
Mg	5.970758	5.970758	5.970758
Pb	3.980508	3.980508	3.980508
O	5.970758	5.970758	3.980508
O	5.970758	3.980508	5.970758
O	3.980508	5.970758	5.970758
