112

O	3.956226	-0.968931	-0.968931
O	-0.969305	0.968931	-3.957615
O	0.969305	-0.968931	-3.957615
O	1.493461	1.494342	-1.494342
O	5.894835	0.968931	-0.968931
O	1.493461	3.432205	-3.432205
O	3.432070	3.432205	-1.494342
O	3.432070	1.494342	-3.432205
Rb	0.000000	0.000000	0.000000
Rb	2.462765	-2.463273	-2.463273
Sn	-1.231383	-1.231637	-3.694910
Sn	3.694148	1.231637	-1.231637
Sn	6.156913	-1.231637	-1.231637
Sn	1.231383	1.231637	-3.694910
O	8.881756	3.957615	-0.968931
O	3.956226	5.895478	-3.957615
O	5.894835	3.957615	-3.957615
O	6.418991	6.420889	-1.494342
O	10.820365	5.895478	-0.968931
O	6.418991	8.358751	-3.432205
O	8.357600	8.358751	-1.494342
O	8.357600	6.420889	-3.432205
Rb	4.925530	4.926547	0.000000
Rb	7.388295	2.463273	-2.463273
Sn	3.694148	3.694910	-3.694910
Sn	8.619678	6.158183	-1.231637
Sn	11.082443	3.694910	-1.231637
Sn	6.156913	6.158183	-3.694910
O	-0.969305	-0.968931	-5.895478
O	-5.894835	0.968931	-8.884162
O	-3.956226	-0.968931	-8.884162
O	-3.432070	1.494342	-6.420889
O	0.969305	0.968931	-5.895478
O	-3.432070	3.432205	-8.358751
O	-1.493461	3.432205	-6.420889
O	-1.493461	1.494342	-8.358751
Rb	-4.925530	0.000000	-4.926547
Rb	-2.462765	-2.463273	-7.389820
Sn	-6.156913	-1.231637	-8.621457
Sn	-1.231383	1.231637	-6.158183
Sn	1.231383	-1.231637	-6.158183
Sn	-3.694148	1.231637	-8.621457
O	3.956226	3.957615	-5.895478
O	-0.969305	5.895478	-8.884162
O	0.969305	3.957615	-8.884162
O	1.493461	6.420889	-6.420889
O	5.894835	5.895478	-5.895478
O	1.493461	8.358751	-8.358751
O	3.432070	8.358751	-6.420889
O	3.432070	6.420889	-8.358751
Rb	0.000000	4.926547	-4.926547
Rb	2.462765	2.463273	-7.389820
Sn	-1.231383	3.694910	-8.621457
Sn	3.694148	6.158183	-6.158183
Sn	6.156913	3.694910	-6.158183
Sn	1.231383	6.158183	-8.621457
O	8.881756	-5.895478	-0.968931
O	3.956226	-3.957615	-3.957615
O	5.894835	-5.895478	-3.957615
O	6.418991	-3.432205	-1.494342
O	10.820365	-3.957615	-0.968931
O	6.418991	-1.494342	-3.432205
O	8.357600	-1.494342	-1.494342
O	8.357600	-3.432205	-3.432205
Rb	4.925530	-4.926547	0.000000
Rb	7.388295	-7.389820	-2.463273
Sn	3.694148	-6.158183	-3.694910
Sn	8.619678	-3.694910	-1.231637
Sn	11.082443	-6.158183	-1.231637
Sn	6.156913	-3.694910	-3.694910
O	13.807286	-0.968931	-0.968931
O	8.881756	0.968931	-3.957615
O	10.820365	-0.968931	-3.957615
O	11.344521	1.494342	-1.494342
O	15.745895	0.968931	-0.968931
O	11.344521	3.432205	-3.432205
O	13.283130	3.432205	-1.494342
O	13.283130	1.494342	-3.432205
Rb	9.851061	0.000000	0.000000
Rb	12.313826	-2.463273	-2.463273
Sn	8.619678	-1.231637	-3.694910
Sn	13.545208	1.231637	-1.231637
Sn	16.007973	-1.231637	-1.231637
Sn	11.082443	1.231637	-3.694910
O	3.956226	-5.895478	-5.895478
O	-0.969305	-3.957615	-8.884162
O	0.969305	-5.895478	-8.884162
O	1.493461	-3.432205	-6.420889
O	5.894835	-3.957615	-5.895478
O	1.493461	-1.494342	-8.358751
O	3.432070	-1.494342	-6.420889
O	3.432070	-3.432205	-8.358751
Rb	0.000000	-4.926547	-4.926547
Rb	2.462765	-7.389820	-7.389820
Sn	-1.231383	-6.158183	-8.621457
Sn	3.694148	-3.694910	-6.158183
Sn	6.156913	-6.158183	-6.158183
Sn	1.231383	-3.694910	-8.621457
O	8.881756	-0.968931	-5.895478
O	3.956226	0.968931	-8.884162
O	5.894835	-0.968931	-8.884162
O	6.418991	1.494342	-6.420889
O	10.820365	0.968931	-5.895478
O	6.418991	3.432205	-8.358751
O	8.357600	3.432205	-6.420889
O	8.357600	1.494342	-8.358751
Rb	4.925530	0.000000	-4.926547
Rb	7.388295	-2.463273	-7.389820
Sn	3.694148	-1.231637	-8.621457
Sn	8.619678	1.231637	-6.158183
Sn	11.082443	-1.231637	-6.158183
Sn	6.156913	1.231637	-8.621457
