176

O	5.469687	3.867653	9.473776
O	3.281812	2.320592	5.684266
O	4.211834	5.646526	11.652442
O	2.023959	4.099465	7.862932
O	6.727541	2.088780	11.652442
O	7.985394	5.646526	9.473776
O	2.953981	2.088780	9.473776
O	4.211834	5.646526	7.295111
O	6.727541	2.088780	7.295111
O	5.797519	4.099465	5.684266
O	0.766106	0.541719	5.684266
O	4.539666	0.541719	3.505600
O	4.539666	0.541719	7.862932
O	2.023959	4.099465	3.505600
Zr	1.093937	3.094122	1.894755
Zr	3.281812	0.000000	1.894755
Zr	0.000000	0.000000	3.789511
Zr	0.000000	0.000000	0.000000
Sm	3.281812	0.000000	5.684266
Sm	1.093937	3.094122	5.684266
Sm	4.375750	3.094122	3.789511
Sm	4.375750	3.094122	7.579021
O	5.469687	3.867653	17.052798
O	3.281812	2.320592	13.263287
O	4.211834	5.646526	19.231463
O	2.023959	4.099465	15.441953
O	6.727541	2.088780	19.231463
O	7.985394	5.646526	17.052798
O	2.953981	2.088780	17.052798
O	4.211834	5.646526	14.874132
O	6.727541	2.088780	14.874132
O	5.797519	4.099465	13.263287
O	0.766106	0.541719	13.263287
O	4.539666	0.541719	11.084621
O	4.539666	0.541719	15.441953
O	2.023959	4.099465	11.084621
Zr	1.093937	3.094122	9.473776
Zr	3.281812	0.000000	9.473776
Zr	0.000000	0.000000	11.368532
Zr	0.000000	0.000000	7.579021
Sm	3.281812	0.000000	13.263287
Sm	1.093937	3.094122	13.263287
Sm	4.375750	3.094122	11.368532
Sm	4.375750	3.094122	15.158042
O	7.657562	10.055898	13.263287
O	5.469687	8.508837	9.473776
O	6.399709	11.834771	15.441953
O	4.211834	10.287710	11.652442
O	8.915416	8.277025	15.441953
O	10.173269	11.834771	13.263287
O	5.141856	8.277025	13.263287
O	6.399709	11.834771	11.084621
O	8.915416	8.277025	11.084621
O	7.985394	10.287710	9.473776
O	2.953981	6.729964	9.473776
O	6.727541	6.729964	7.295111
O	6.727541	6.729964	11.652442
O	4.211834	10.287710	7.295111
Zr	3.281812	9.282367	5.684266
Zr	5.469687	6.188245	5.684266
Zr	2.187875	6.188245	7.579021
Zr	2.187875	6.188245	3.789511
Sm	5.469687	6.188245	9.473776
Sm	3.281812	9.282367	9.473776
Sm	6.563625	9.282367	7.579021
Sm	6.563625	9.282367	11.368532
O	7.657562	10.055898	20.842308
O	5.469687	8.508837	17.052798
O	6.399709	11.834771	23.020974
O	4.211834	10.287710	19.231463
O	8.915416	8.277025	23.020974
O	10.173269	11.834771	20.842308
O	5.141856	8.277025	20.842308
O	6.399709	11.834771	18.663643
O	8.915416	8.277025	18.663643
O	7.985394	10.287710	17.052798
O	2.953981	6.729964	17.052798
O	6.727541	6.729964	14.874132
O	6.727541	6.729964	19.231463
O	4.211834	10.287710	14.874132
Zr	3.281812	9.282367	13.263287
Zr	5.469687	6.188245	13.263287
Zr	2.187875	6.188245	15.158042
Zr	2.187875	6.188245	11.368532
Sm	5.469687	6.188245	17.052798
Sm	3.281812	9.282367	17.052798
Sm	6.563625	9.282367	15.158042
Sm	6.563625	9.282367	18.947553
O	12.033312	3.867653	13.263287
O	9.845437	2.320592	9.473776
O	10.775459	5.646526	15.441953
O	8.587584	4.099465	11.652442
O	13.291166	2.088780	15.441953
O	14.549019	5.646526	13.263287
O	9.517606	2.088780	13.263287
O	10.775459	5.646526	11.084621
O	13.291166	2.088780	11.084621
O	12.361144	4.099465	9.473776
O	7.329731	0.541719	9.473776
O	11.103291	0.541719	7.295111
O	11.103291	0.541719	11.652442
O	8.587584	4.099465	7.295111
Zr	7.657562	3.094122	5.684266
Zr	9.845437	0.000000	5.684266
Zr	6.563625	0.000000	7.579021
Zr	6.563625	0.000000	3.789511
Sm	9.845437	0.000000	9.473776
Sm	7.657562	3.094122	9.473776
Sm	10.939375	3.094122	7.579021
Sm	10.939375	3.094122	11.368532
O	12.033312	3.867653	20.842308
O	9.845437	2.320592	17.052798
O	10.775459	5.646526	23.020974
O	8.587584	4.099465	19.231463
O	13.291166	2.088780	23.020974
O	14.549019	5.646526	20.842308
O	9.517606	2.088780	20.842308
O	10.775459	5.646526	18.663643
O	13.291166	2.088780	18.663643
O	12.361144	4.099465	17.052798
O	7.329731	0.541719	17.052798
O	11.103291	0.541719	14.874132
O	11.103291	0.541719	19.231463
O	8.587584	4.099465	14.874132
Zr	7.657562	3.094122	13.263287
Zr	9.845437	0.000000	13.263287
Zr	6.563625	0.000000	15.158042
Zr	6.563625	0.000000	11.368532
Sm	9.845437	0.000000	17.052798
Sm	7.657562	3.094122	17.052798
Sm	10.939375	3.094122	15.158042
Sm	10.939375	3.094122	18.947553
O	14.221187	10.055898	17.052798
O	12.033312	8.508837	13.263287
O	12.963334	11.834771	19.231463
O	10.775459	10.287710	15.441953
O	15.479041	8.277025	19.231463
O	16.736894	11.834771	17.052798
O	11.705481	8.277025	17.052798
O	12.963334	11.834771	14.874132
O	15.479041	8.277025	14.874132
O	14.549019	10.287710	13.263287
O	9.517606	6.729964	13.263287
O	13.291166	6.729964	11.084621
O	13.291166	6.729964	15.441953
O	10.775459	10.287710	11.084621
Zr	9.845437	9.282367	9.473776
Zr	12.033312	6.188245	9.473776
Zr	8.751500	6.188245	11.368532
Zr	8.751500	6.188245	7.579021
Sm	12.033312	6.188245	13.263287
Sm	9.845437	9.282367	13.263287
Sm	13.127250	9.282367	11.368532
Sm	13.127250	9.282367	15.158042
O	14.221187	10.055898	24.631819
O	12.033312	8.508837	20.842308
O	12.963334	11.834771	26.810485
O	10.775459	10.287710	23.020974
O	15.479041	8.277025	26.810485
O	16.736894	11.834771	24.631819
O	11.705481	8.277025	24.631819
O	12.963334	11.834771	22.453153
O	15.479041	8.277025	22.453153
O	14.549019	10.287710	20.842308
O	9.517606	6.729964	20.842308
O	13.291166	6.729964	18.663643
O	13.291166	6.729964	23.020974
O	10.775459	10.287710	18.663643
Zr	9.845437	9.282367	17.052798
Zr	12.033312	6.188245	17.052798
Zr	8.751500	6.188245	18.947553
Zr	8.751500	6.188245	15.158042
Sm	12.033312	6.188245	20.842308
Sm	9.845437	9.282367	20.842308
Sm	13.127250	9.282367	18.947553
Sm	13.127250	9.282367	22.737064
