40

O	2.274810	2.274810	0.000000
O	0.000000	2.274810	2.274810
O	2.274810	0.000000	2.274810
Sb	0.000000	0.000000	0.000000
Th	2.274810	2.274810	2.274810
O	2.274810	2.274810	4.549621
O	0.000000	2.274810	6.824431
O	2.274810	0.000000	6.824431
Sb	0.000000	0.000000	4.549621
Th	2.274810	2.274810	6.824431
O	2.274810	6.824431	0.000000
O	0.000000	6.824431	2.274810
O	2.274810	4.549621	2.274810
Sb	0.000000	4.549621	0.000000
Th	2.274810	6.824431	2.274810
O	2.274810	6.824431	4.549621
O	0.000000	6.824431	6.824431
O	2.274810	4.549621	6.824431
Sb	0.000000	4.549621	4.549621
Th	2.274810	6.824431	6.824431
O	6.824431	2.274810	0.000000
O	4.549621	2.274810	2.274810
O	6.824431	0.000000	2.274810
Sb	4.549621	0.000000	0.000000
Th	6.824431	2.274810	2.274810
O	6.824431	2.274810	4.549621
O	4.549621	2.274810	6.824431
O	6.824431	0.000000	6.824431
Sb	4.549621	0.000000	4.549621
Th	6.824431	2.274810	6.824431
O	6.824431	6.824431	0.000000
O	4.549621	6.824431	2.274810
O	6.824431	4.549621	2.274810
Sb	4.549621	4.549621	0.000000
Th	6.824431	6.824431	2.274810
O	6.824431	6.824431	4.549621
O	4.549621	6.824431	6.824431
O	6.824431	4.549621	6.824431
Sb	4.549621	4.549621	4.549621
Th	6.824431	6.824431	6.824431
