64

O	2.391235	-0.077435	4.335116
O	0.759241	2.268822	4.335116
O	3.206139	2.230104	5.812471
O	3.261802	2.268822	2.954712
Al	2.404730	1.672666	4.359583
Al	4.007547	2.787542	7.265360
Tl	5.612943	3.904212	10.175813
Tl	0.799335	0.555996	1.449130
O	2.279908	-0.154871	10.050635
O	0.647915	2.191386	10.050635
O	3.094813	2.152668	11.527991
O	3.150476	2.191386	8.670231
Al	2.293404	1.595230	10.075102
Al	3.896221	2.710107	12.980879
Tl	5.501617	3.826776	15.891332
Tl	0.688009	0.478561	7.164649
O	4.021043	4.537643	7.289827
O	2.389050	6.883900	7.289827
O	4.835948	6.845183	8.767183
O	4.891611	6.883900	5.909424
Al	4.034539	6.287745	7.314294
Al	5.637356	7.402621	10.220072
Tl	7.242751	8.519291	13.130524
Tl	2.429144	5.171075	4.403842
O	3.909717	4.460208	13.005347
O	2.277724	6.806465	13.005347
O	4.724621	6.767747	14.482702
O	4.780285	6.806465	11.624943
Al	3.923213	6.210309	13.029814
Al	5.526030	7.325185	15.935591
Tl	7.131425	8.441855	18.846044
Tl	2.317818	5.093639	10.119361
O	7.285030	-0.154871	7.289827
O	5.653037	2.191386	7.289827
O	8.099934	2.152668	8.767183
O	8.155597	2.191386	5.909424
Al	7.298526	1.595230	7.314294
Al	8.901343	2.710107	10.220072
Tl	10.506738	3.826776	13.130524
Tl	5.693130	0.478561	4.403842
O	7.173704	-0.232306	13.005347
O	5.541710	2.113951	13.005347
O	7.988608	2.075233	14.482702
O	8.044271	2.113951	11.624943
Al	7.187200	1.517795	13.029814
Al	8.790016	2.632671	15.935591
Tl	10.395412	3.749341	18.846044
Tl	5.581804	0.401125	10.119361
O	8.914838	4.460208	10.244539
O	7.282845	6.806465	10.244539
O	9.729743	6.767747	11.721895
O	9.785406	6.806465	8.864135
Al	8.928334	6.210309	10.269006
Al	10.531151	7.325185	13.174784
Tl	12.136547	8.441855	16.085236
Tl	7.322939	5.093639	7.358554
O	8.803512	4.382772	15.960058
O	7.171519	6.729029	15.960058
O	9.618417	6.690312	17.437414
O	9.674080	6.729029	14.579655
Al	8.817008	6.132874	15.984525
Al	10.419825	7.247750	18.890303
Tl	12.025220	8.364420	21.800755
Tl	7.211613	5.016204	13.074073
