112

O	3.318382	-1.000287	-1.000288
O	-1.000858	1.000288	-3.320124
O	1.000858	-1.000287	-3.320124
O	1.158762	1.159918	-1.159918
O	5.320097	1.000288	-1.000288
O	1.158762	3.160493	-3.160493
O	3.160477	3.160493	-1.159918
O	3.160477	1.159918	-3.160493
Pt	0.000000	0.000000	0.000000
Pt	2.159620	-2.160206	-2.160206
Zn	-1.079810	-1.080103	-3.240309
Zn	3.239430	1.080103	-1.080103
Zn	5.399050	-1.080103	-1.080103
Zn	1.079810	1.080103	-3.240309
O	7.637622	3.320124	-1.000288
O	3.318382	5.320699	-3.320124
O	5.320097	3.320124	-3.320124
O	5.478002	5.480330	-1.159918
O	9.639337	5.320699	-1.000288
O	5.478002	7.480905	-3.160493
O	7.479717	7.480905	-1.159918
O	7.479717	5.480330	-3.160493
Pt	4.319240	4.320412	0.000000
Pt	6.478859	2.160206	-2.160206
Zn	3.239430	3.240309	-3.240309
Zn	7.558669	5.400515	-1.080103
Zn	9.718289	3.240309	-1.080103
Zn	5.399050	5.400515	-3.240309
O	-1.000858	-1.000287	-5.320699
O	-5.320097	1.000288	-7.640536
O	-3.318382	-1.000287	-7.640536
O	-3.160477	1.159918	-5.480330
O	1.000858	1.000288	-5.320699
O	-3.160477	3.160493	-7.480905
O	-1.158762	3.160493	-5.480330
O	-1.158762	1.159918	-7.480905
Pt	-4.319240	0.000000	-4.320412
Pt	-2.159620	-2.160206	-6.480618
Zn	-5.399050	-1.080103	-7.560721
Zn	-1.079810	1.080103	-5.400515
Zn	1.079810	-1.080103	-5.400515
Zn	-3.239430	1.080103	-7.560721
O	3.318382	3.320124	-5.320699
O	-1.000858	5.320699	-7.640536
O	1.000858	3.320124	-7.640536
O	1.158762	5.480330	-5.480330
O	5.320097	5.320699	-5.320699
O	1.158762	7.480905	-7.480905
O	3.160477	7.480905	-5.480330
O	3.160477	5.480330	-7.480905
Pt	0.000000	4.320412	-4.320412
Pt	2.159620	2.160206	-6.480618
Zn	-1.079810	3.240309	-7.560721
Zn	3.239430	5.400515	-5.400515
Zn	5.399050	3.240309	-5.400515
Zn	1.079810	5.400515	-7.560721
O	7.637622	-5.320699	-1.000288
O	3.318382	-3.320124	-3.320124
O	5.320097	-5.320699	-3.320124
O	5.478002	-3.160493	-1.159918
O	9.639337	-3.320124	-1.000288
O	5.478002	-1.159918	-3.160493
O	7.479717	-1.159918	-1.159918
O	7.479717	-3.160493	-3.160493
Pt	4.319240	-4.320412	0.000000
Pt	6.478859	-6.480618	-2.160206
Zn	3.239430	-5.400515	-3.240309
Zn	7.558669	-3.240309	-1.080103
Zn	9.718289	-5.400515	-1.080103
Zn	5.399050	-3.240309	-3.240309
O	11.956861	-1.000287	-1.000288
O	7.637622	1.000288	-3.320124
O	9.639337	-1.000287	-3.320124
O	9.797241	1.159918	-1.159918
O	13.958576	1.000288	-1.000288
O	9.797241	3.160493	-3.160493
O	11.798957	3.160493	-1.159918
O	11.798957	1.159918	-3.160493
Pt	8.638479	0.000000	0.000000
Pt	10.798099	-2.160206	-2.160206
Zn	7.558669	-1.080103	-3.240309
Zn	11.877909	1.080103	-1.080103
Zn	14.037529	-1.080103	-1.080103
Zn	9.718289	1.080103	-3.240309
O	3.318382	-5.320699	-5.320699
O	-1.000858	-3.320124	-7.640536
O	1.000858	-5.320699	-7.640536
O	1.158762	-3.160493	-5.480330
O	5.320097	-3.320124	-5.320699
O	1.158762	-1.159918	-7.480905
O	3.160477	-1.159918	-5.480330
O	3.160477	-3.160493	-7.480905
Pt	0.000000	-4.320412	-4.320412
Pt	2.159620	-6.480618	-6.480618
Zn	-1.079810	-5.400515	-7.560721
Zn	3.239430	-3.240309	-5.400515
Zn	5.399050	-5.400515	-5.400515
Zn	1.079810	-3.240309	-7.560721
O	7.637622	-1.000287	-5.320699
O	3.318382	1.000288	-7.640536
O	5.320097	-1.000287	-7.640536
O	5.478002	1.159918	-5.480330
O	9.639337	1.000288	-5.320699
O	5.478002	3.160493	-7.480905
O	7.479717	3.160493	-5.480330
O	7.479717	1.159918	-7.480905
Pt	4.319240	0.000000	-4.320412
Pt	6.478859	-2.160206	-6.480618
Zn	3.239430	-1.080103	-7.560721
Zn	7.558669	1.080103	-5.400515
Zn	9.718289	-1.080103	-5.400515
Zn	5.399050	1.080103	-7.560721
