112

O	3.746549	-0.902395	-0.902395
O	-0.902624	0.902395	-3.747930
O	0.902624	-0.902395	-3.747930
O	1.421967	1.422768	-1.422767
O	5.551798	0.902395	-0.902395
O	1.421967	3.227558	-3.227558
O	3.227206	3.227558	-1.422767
O	3.227206	1.422768	-3.227558
Rb	0.000000	0.000000	0.000000
Rb	2.324592	-2.325163	-2.325163
Tc	-1.162296	-1.162576	-3.487739
Tc	3.486878	1.162576	-1.162576
Tc	1.162296	1.162576	-3.487739
Tc	5.811469	-1.162576	-1.162576
O	8.395724	3.747927	-0.902395
O	3.746551	5.552718	-3.747930
O	5.551800	3.747927	-3.747930
O	6.071143	6.073090	-1.422767
O	10.200973	5.552718	-0.902395
O	6.071143	7.877881	-3.227558
O	7.876382	7.877881	-1.422767
O	7.876381	6.073090	-3.227558
Rb	4.649175	4.650323	0.000000
Rb	6.973767	2.325160	-2.325163
Tc	3.486880	3.487746	-3.487739
Tc	8.136053	5.812899	-1.162576
Tc	5.811471	5.812899	-3.487739
Tc	10.460645	3.487746	-1.162576
O	-0.902626	-0.902395	-5.552718
O	-5.551800	0.902395	-8.398253
O	-3.746551	-0.902395	-8.398253
O	-3.227208	1.422768	-6.073090
O	0.902622	0.902395	-5.552718
O	-3.227208	3.227558	-7.877881
O	-1.421969	3.227558	-6.073090
O	-1.421969	1.422768	-7.877881
Rb	-4.649175	0.000000	-4.650323
Rb	-2.324584	-2.325163	-6.975485
Tc	-5.811471	-1.162576	-8.138062
Tc	-1.162298	1.162576	-5.812899
Tc	-3.486880	1.162576	-8.138062
Tc	1.162294	-1.162576	-5.812899
O	3.746549	3.747927	-5.552718
O	-0.902624	5.552718	-8.398253
O	0.902624	3.747927	-8.398253
O	1.421967	6.073090	-6.073090
O	5.551798	5.552718	-5.552718
O	1.421967	7.877881	-7.877881
O	3.227206	7.877881	-6.073090
O	3.227206	6.073090	-7.877881
Rb	0.000000	4.650323	-4.650323
Rb	2.324592	2.325160	-6.975485
Tc	-1.162296	3.487746	-8.138062
Tc	3.486878	5.812899	-5.812899
Tc	1.162296	5.812899	-8.138062
Tc	5.811469	3.487746	-5.812899
O	8.395724	-5.552718	-0.902395
O	3.746551	-3.747927	-3.747930
O	5.551800	-5.552718	-3.747930
O	6.071143	-3.227555	-1.422767
O	10.200973	-3.747927	-0.902395
O	6.071143	-1.422765	-3.227558
O	7.876382	-1.422765	-1.422767
O	7.876381	-3.227555	-3.227558
Rb	4.649175	-4.650323	0.000000
Rb	6.973767	-6.975485	-2.325163
Tc	3.486880	-5.812899	-3.487739
Tc	8.136053	-3.487746	-1.162576
Tc	5.811471	-3.487746	-3.487739
Tc	10.460645	-5.812899	-1.162576
O	13.044900	-0.902395	-0.902395
O	8.395726	0.902395	-3.747930
O	10.200975	-0.902395	-3.747930
O	10.720318	1.422768	-1.422767
O	14.850149	0.902395	-0.902395
O	10.720318	3.227558	-3.227558
O	12.525557	3.227558	-1.422767
O	12.525557	1.422768	-3.227558
Rb	9.298351	0.000000	0.000000
Rb	11.622942	-2.325163	-2.325163
Tc	8.136055	-1.162576	-3.487739
Tc	12.785228	1.162576	-1.162576
Tc	10.460647	1.162576	-3.487739
Tc	15.109820	-1.162576	-1.162576
O	3.746549	-5.552718	-5.552718
O	-0.902624	-3.747927	-8.398253
O	0.902624	-5.552718	-8.398253
O	1.421967	-3.227555	-6.073090
O	5.551798	-3.747927	-5.552718
O	1.421967	-1.422765	-7.877881
O	3.227206	-1.422765	-6.073090
O	3.227206	-3.227555	-7.877881
Rb	0.000000	-4.650323	-4.650323
Rb	2.324592	-6.975485	-6.975485
Tc	-1.162296	-5.812899	-8.138062
Tc	3.486878	-3.487746	-5.812899
Tc	1.162296	-3.487746	-8.138062
Tc	5.811469	-5.812899	-5.812899
O	8.395724	-0.902395	-5.552718
O	3.746551	0.902395	-8.398253
O	5.551800	-0.902395	-8.398253
O	6.071143	1.422768	-6.073090
O	10.200973	0.902395	-5.552718
O	6.071143	3.227558	-7.877881
O	7.876382	3.227558	-6.073090
O	7.876381	1.422768	-7.877881
Rb	4.649175	0.000000	-4.650323
Rb	6.973767	-2.325163	-6.975485
Tc	3.486880	-1.162576	-8.138062
Tc	8.136053	1.162576	-5.812899
Tc	5.811471	1.162576	-8.138062
Tc	10.460645	-1.162576	-5.812899
