40

Al	1.838270	1.838270	1.838270
O	0.000000	1.838270	1.838270
O	1.838270	0.000000	1.838270
O	1.838270	1.838270	0.000000
Si	0.000000	0.000000	0.000000
Al	1.838270	1.838270	5.514810
O	0.000000	1.838270	5.514810
O	1.838270	0.000000	5.514810
O	1.838270	1.838270	3.676540
Si	0.000000	0.000000	3.676540
Al	1.838270	5.514810	1.838270
O	0.000000	5.514810	1.838270
O	1.838270	3.676540	1.838270
O	1.838270	5.514810	0.000000
Si	0.000000	3.676540	0.000000
Al	1.838270	5.514810	5.514810
O	0.000000	5.514810	5.514810
O	1.838270	3.676540	5.514810
O	1.838270	5.514810	3.676540
Si	0.000000	3.676540	3.676540
Al	5.514810	1.838270	1.838270
O	3.676540	1.838270	1.838270
O	5.514810	0.000000	1.838270
O	5.514810	1.838270	0.000000
Si	3.676540	0.000000	0.000000
Al	5.514810	1.838270	5.514810
O	3.676540	1.838270	5.514810
O	5.514810	0.000000	5.514810
O	5.514810	1.838270	3.676540
Si	3.676540	0.000000	3.676540
Al	5.514810	5.514810	1.838270
O	3.676540	5.514810	1.838270
O	5.514810	3.676540	1.838270
O	5.514810	5.514810	0.000000
Si	3.676540	3.676540	0.000000
Al	5.514810	5.514810	5.514810
O	3.676540	5.514810	5.514810
O	5.514810	3.676540	5.514810
O	5.514810	5.514810	3.676540
Si	3.676540	3.676540	3.676540
