40

Ag	0.000000	0.000000	0.000000
C	1.768915	1.768915	1.768915
O	0.000000	1.768915	1.768915
O	1.768915	0.000000	1.768915
O	1.768915	1.768915	0.000000
Ag	0.000000	0.000000	3.537830
C	1.768915	1.768915	5.306745
O	0.000000	1.768915	5.306745
O	1.768915	0.000000	5.306745
O	1.768915	1.768915	3.537830
Ag	0.000000	3.537830	0.000000
C	1.768915	5.306745	1.768915
O	0.000000	5.306745	1.768915
O	1.768915	3.537830	1.768915
O	1.768915	5.306745	0.000000
Ag	0.000000	3.537830	3.537830
C	1.768915	5.306745	5.306745
O	0.000000	5.306745	5.306745
O	1.768915	3.537830	5.306745
O	1.768915	5.306745	3.537830
Ag	3.537830	0.000000	0.000000
C	5.306745	1.768915	1.768915
O	3.537830	1.768915	1.768915
O	5.306745	0.000000	1.768915
O	5.306745	1.768915	0.000000
Ag	3.537830	0.000000	3.537830
C	5.306745	1.768915	5.306745
O	3.537830	1.768915	5.306745
O	5.306745	0.000000	5.306745
O	5.306745	1.768915	3.537830
Ag	3.537830	3.537830	0.000000
C	5.306745	5.306745	1.768915
O	3.537830	5.306745	1.768915
O	5.306745	3.537830	1.768915
O	5.306745	5.306745	0.000000
Ag	3.537830	3.537830	3.537830
C	5.306745	5.306745	5.306745
O	3.537830	5.306745	5.306745
O	5.306745	3.537830	5.306745
O	5.306745	5.306745	3.537830
