40

O	1.949901	1.949901	0.000000
O	1.949901	0.000000	1.949901
O	0.000000	1.949901	1.949901
Os	0.000000	0.000000	0.000000
Re	1.949901	1.949901	1.949901
O	1.949901	1.949901	3.899799
O	1.949901	0.000000	5.849700
O	0.000000	1.949901	5.849700
Os	0.000000	0.000000	3.899799
Re	1.949901	1.949901	5.849700
O	1.949901	5.849700	0.000000
O	1.949901	3.899799	1.949901
O	0.000000	5.849700	1.949901
Os	0.000000	3.899799	0.000000
Re	1.949901	5.849700	1.949901
O	1.949901	5.849700	3.899799
O	1.949901	3.899799	5.849700
O	0.000000	5.849700	5.849700
Os	0.000000	3.899799	3.899799
Re	1.949901	5.849700	5.849700
O	5.849700	1.949901	0.000000
O	5.849700	0.000000	1.949901
O	3.899799	1.949901	1.949901
Os	3.899799	0.000000	0.000000
Re	5.849700	1.949901	1.949901
O	5.849700	1.949901	3.899799
O	5.849700	0.000000	5.849700
O	3.899799	1.949901	5.849700
Os	3.899799	0.000000	3.899799
Re	5.849700	1.949901	5.849700
O	5.849700	5.849700	0.000000
O	5.849700	3.899799	1.949901
O	3.899799	5.849700	1.949901
Os	3.899799	3.899799	0.000000
Re	5.849700	5.849700	1.949901
O	5.849700	5.849700	3.899799
O	5.849700	3.899799	5.849700
O	3.899799	5.849700	5.849700
Os	3.899799	3.899799	3.899799
Re	5.849700	5.849700	5.849700
