40

Eu	2.170032	2.170032	2.170032
O	2.170032	2.170032	0.000000
O	2.170032	0.000000	2.170032
O	0.000000	2.170032	2.170032
Ru	0.000000	0.000000	0.000000
Eu	2.170032	2.170032	6.510096
O	2.170032	2.170032	4.340064
O	2.170032	0.000000	6.510096
O	0.000000	2.170032	6.510096
Ru	0.000000	0.000000	4.340064
Eu	2.170032	6.510096	2.170032
O	2.170032	6.510096	0.000000
O	2.170032	4.340064	2.170032
O	0.000000	6.510096	2.170032
Ru	0.000000	4.340064	0.000000
Eu	2.170032	6.510096	6.510096
O	2.170032	6.510096	4.340064
O	2.170032	4.340064	6.510096
O	0.000000	6.510096	6.510096
Ru	0.000000	4.340064	4.340064
Eu	6.510096	2.170032	2.170032
O	6.510096	2.170032	0.000000
O	6.510096	0.000000	2.170032
O	4.340064	2.170032	2.170032
Ru	4.340064	0.000000	0.000000
Eu	6.510096	2.170032	6.510096
O	6.510096	2.170032	4.340064
O	6.510096	0.000000	6.510096
O	4.340064	2.170032	6.510096
Ru	4.340064	0.000000	4.340064
Eu	6.510096	6.510096	2.170032
O	6.510096	6.510096	0.000000
O	6.510096	4.340064	2.170032
O	4.340064	6.510096	2.170032
Ru	4.340064	4.340064	0.000000
Eu	6.510096	6.510096	6.510096
O	6.510096	6.510096	4.340064
O	6.510096	4.340064	6.510096
O	4.340064	6.510096	6.510096
Ru	4.340064	4.340064	4.340064
