40

Eu	0.000000	0.000000	0.000000
O	1.972864	1.972864	0.000000
O	1.972864	0.000000	1.972864
O	0.000000	1.972864	1.972864
Re	1.972864	1.972864	1.972864
Eu	0.000000	0.000000	3.945727
O	1.972864	1.972864	3.945727
O	1.972864	0.000000	5.918591
O	0.000000	1.972864	5.918591
Re	1.972864	1.972864	5.918591
Eu	0.000000	3.945727	0.000000
O	1.972864	5.918591	0.000000
O	1.972864	3.945727	1.972864
O	0.000000	5.918591	1.972864
Re	1.972864	5.918591	1.972864
Eu	0.000000	3.945727	3.945727
O	1.972864	5.918591	3.945727
O	1.972864	3.945727	5.918591
O	0.000000	5.918591	5.918591
Re	1.972864	5.918591	5.918591
Eu	3.945727	0.000000	0.000000
O	5.918591	1.972864	0.000000
O	5.918591	0.000000	1.972864
O	3.945727	1.972864	1.972864
Re	5.918591	1.972864	1.972864
Eu	3.945727	0.000000	3.945727
O	5.918591	1.972864	3.945727
O	5.918591	0.000000	5.918591
O	3.945727	1.972864	5.918591
Re	5.918591	1.972864	5.918591
Eu	3.945727	3.945727	0.000000
O	5.918591	5.918591	0.000000
O	5.918591	3.945727	1.972864
O	3.945727	5.918591	1.972864
Re	5.918591	5.918591	1.972864
Eu	3.945727	3.945727	3.945727
O	5.918591	5.918591	3.945727
O	5.918591	3.945727	5.918591
O	3.945727	5.918591	5.918591
Re	5.918591	5.918591	5.918591
