112

O	3.940440	-1.151575	-1.151575
O	-1.152383	1.151575	-3.941858
O	1.152383	-1.151575	-3.941858
O	1.394028	1.395141	-1.395141
O	6.245206	1.151575	-1.151575
O	1.394028	3.698292	-3.698292
O	3.698795	3.698292	-1.395141
O	3.698795	1.395141	-3.698292
Pu	0.000000	0.000000	0.000000
Pu	2.546411	-2.546717	-2.546717
Th	-1.273206	-1.273358	-3.820075
Th	3.819617	1.273358	-1.273358
Th	6.366029	-1.273358	-1.273358
Th	1.273206	1.273358	-3.820075
O	9.033263	3.941858	-1.151575
O	3.940440	6.245009	-3.941858
O	6.245206	3.941858	-3.941858
O	6.486851	6.488575	-1.395141
O	11.338029	6.245009	-1.151575
O	6.486851	8.791725	-3.698292
O	8.791618	8.791725	-1.395141
O	8.791618	6.488575	-3.698292
Pu	5.092823	5.093433	0.000000
Pu	7.639234	2.546717	-2.546717
Th	3.819617	3.820075	-3.820075
Th	8.912440	6.366792	-1.273358
Th	11.458852	3.820075	-1.273358
Th	6.366029	6.366792	-3.820075
O	-1.152383	-1.151575	-6.245009
O	-6.245206	1.151575	-9.035291
O	-3.940440	-1.151575	-9.035291
O	-3.698795	1.395141	-6.488575
O	1.152383	1.151575	-6.245009
O	-3.698795	3.698292	-8.791725
O	-1.394028	3.698292	-6.488575
O	-1.394028	1.395141	-8.791725
Pu	-5.092823	0.000000	-5.093433
Pu	-2.546411	-2.546717	-7.640150
Th	-6.366029	-1.273358	-8.913508
Th	-1.273206	1.273358	-6.366792
Th	1.273206	-1.273358	-6.366792
Th	-3.819617	1.273358	-8.913508
O	3.940440	3.941858	-6.245009
O	-1.152383	6.245009	-9.035291
O	1.152383	3.941858	-9.035291
O	1.394028	6.488575	-6.488575
O	6.245206	6.245009	-6.245009
O	1.394028	8.791725	-8.791725
O	3.698795	8.791725	-6.488575
O	3.698795	6.488575	-8.791725
Pu	0.000000	5.093433	-5.093433
Pu	2.546411	2.546717	-7.640150
Th	-1.273206	3.820075	-8.913508
Th	3.819617	6.366792	-6.366792
Th	6.366029	3.820075	-6.366792
Th	1.273206	6.366792	-8.913508
O	9.033263	-6.245009	-1.151575
O	3.940440	-3.941858	-3.941858
O	6.245206	-6.245009	-3.941858
O	6.486851	-3.698292	-1.395141
O	11.338029	-3.941858	-1.151575
O	6.486851	-1.395141	-3.698292
O	8.791618	-1.395141	-1.395141
O	8.791618	-3.698292	-3.698292
Pu	5.092823	-5.093433	0.000000
Pu	7.639234	-7.640150	-2.546717
Th	3.819617	-6.366792	-3.820075
Th	8.912440	-3.820075	-1.273358
Th	11.458852	-6.366792	-1.273358
Th	6.366029	-3.820075	-3.820075
O	14.126086	-1.151575	-1.151575
O	9.033263	1.151575	-3.941858
O	11.338029	-1.151575	-3.941858
O	11.579674	1.395141	-1.395141
O	16.430852	1.151575	-1.151575
O	11.579674	3.698292	-3.698292
O	13.884441	3.698292	-1.395141
O	13.884441	1.395141	-3.698292
Pu	10.185646	0.000000	0.000000
Pu	12.732057	-2.546717	-2.546717
Th	8.912440	-1.273358	-3.820075
Th	14.005263	1.273358	-1.273358
Th	16.551675	-1.273358	-1.273358
Th	11.458852	1.273358	-3.820075
O	3.940440	-6.245009	-6.245009
O	-1.152383	-3.941858	-9.035291
O	1.152383	-6.245009	-9.035291
O	1.394028	-3.698292	-6.488575
O	6.245206	-3.941858	-6.245009
O	1.394028	-1.395141	-8.791725
O	3.698795	-1.395141	-6.488575
O	3.698795	-3.698292	-8.791725
Pu	0.000000	-5.093433	-5.093433
Pu	2.546411	-7.640150	-7.640150
Th	-1.273206	-6.366792	-8.913508
Th	3.819617	-3.820075	-6.366792
Th	6.366029	-6.366792	-6.366792
Th	1.273206	-3.820075	-8.913508
O	9.033263	-1.151575	-6.245009
O	3.940440	1.151575	-9.035291
O	6.245206	-1.151575	-9.035291
O	6.486851	1.395141	-6.488575
O	11.338029	1.151575	-6.245009
O	6.486851	3.698292	-8.791725
O	8.791618	3.698292	-6.488575
O	8.791618	1.395141	-8.791725
Pu	5.092823	0.000000	-5.093433
Pu	7.639234	-2.546717	-7.640150
Th	3.819617	-1.273358	-8.913508
Th	8.912440	1.273358	-6.366792
Th	11.458852	-1.273358	-6.366792
Th	6.366029	1.273358	-8.913508
