112

Be	0.000000	0.000000	0.000000
Be	2.457933	-2.457961	-2.457961
O	0.909084	0.909160	-0.909160
O	-1.548838	1.548791	-3.367121
O	3.367017	-1.548791	-1.548791
O	1.548838	-1.548791	-3.367121
O	0.909084	4.006752	-4.006752
O	4.006761	4.006752	-0.909160
O	4.006761	0.909160	-4.006752
O	6.464694	1.548791	-1.548791
Rb	-1.228961	-1.228981	-3.686932
Rb	1.228961	1.228980	-3.686932
Rb	6.144817	-1.228980	-1.228981
Rb	3.686894	1.228981	-1.228981
Be	4.915853	4.915916	0.000000
Be	7.373785	2.457955	-2.457961
O	5.824937	5.825076	-0.909160
O	3.367014	6.464708	-3.367121
O	8.282870	3.367125	-1.548791
O	6.464691	3.367125	-3.367121
O	5.824937	8.922669	-4.006752
O	8.922614	8.922669	-0.909160
O	8.922614	5.825076	-4.006752
O	11.380547	6.464708	-1.548791
Rb	3.686891	3.686936	-3.686932
Rb	6.144814	6.144897	-3.686932
Rb	11.060670	3.686936	-1.228981
Rb	8.602747	6.144897	-1.228981
Be	-4.915853	0.000000	-4.915916
Be	-2.457920	-2.457961	-7.373878
O	-4.006768	0.909160	-5.825076
O	-6.464691	1.548791	-8.283037
O	-1.548836	-1.548791	-6.464708
O	-3.367014	-1.548791	-8.283037
O	-4.006768	4.006752	-8.922669
O	-0.909091	4.006752	-5.825076
O	-0.909091	0.909160	-8.922669
O	1.548842	1.548791	-6.464708
Rb	-6.144814	-1.228981	-8.602848
Rb	-3.686891	1.228980	-8.602848
Rb	1.228964	-1.228980	-6.144897
Rb	-1.228958	1.228981	-6.144897
Be	0.000000	4.915916	-4.915916
Be	2.457933	2.457955	-7.373878
O	0.909084	5.825076	-5.825076
O	-1.548838	6.464708	-8.283037
O	3.367017	3.367125	-6.464708
O	1.548838	3.367125	-8.283037
O	0.909084	8.922669	-8.922669
O	4.006761	8.922669	-5.825076
O	4.006761	5.825076	-8.922669
O	6.464694	6.464708	-6.464708
Rb	-1.228961	3.686936	-8.602848
Rb	1.228961	6.144897	-8.602848
Rb	6.144817	3.686936	-6.144897
Rb	3.686894	6.144897	-6.144897
Be	4.915853	-4.915916	0.000000
Be	7.373785	-7.373878	-2.457961
O	5.824937	-4.006757	-0.909160
O	3.367014	-3.367125	-3.367121
O	8.282870	-6.464708	-1.548791
O	6.464691	-6.464708	-3.367121
O	5.824937	-0.909164	-4.006752
O	8.922614	-0.909164	-0.909160
O	8.922614	-4.006757	-4.006752
O	11.380547	-3.367125	-1.548791
Rb	3.686891	-6.144897	-3.686932
Rb	6.144814	-3.686936	-3.686932
Rb	11.060670	-6.144897	-1.228981
Rb	8.602747	-3.686936	-1.228981
Be	9.831705	0.000000	0.000000
Be	12.289638	-2.457961	-2.457961
O	10.740789	0.909160	-0.909160
O	8.282867	1.548791	-3.367121
O	13.198722	-1.548791	-1.548791
O	11.380544	-1.548791	-3.367121
O	10.740790	4.006752	-4.006752
O	13.838466	4.006752	-0.909160
O	13.838466	0.909160	-4.006752
O	16.296399	1.548791	-1.548791
Rb	8.602744	-1.228981	-3.686932
Rb	11.060667	1.228980	-3.686932
Rb	15.976522	-1.228980	-1.228981
Rb	13.518599	1.228981	-1.228981
Be	0.000000	-4.915916	-4.915916
Be	2.457933	-7.373878	-7.373878
O	0.909084	-4.006757	-5.825076
O	-1.548838	-3.367125	-8.283037
O	3.367017	-6.464708	-6.464708
O	1.548838	-6.464708	-8.283037
O	0.909084	-0.909164	-8.922669
O	4.006761	-0.909164	-5.825076
O	4.006761	-4.006757	-8.922669
O	6.464694	-3.367125	-6.464708
Rb	-1.228961	-6.144897	-8.602848
Rb	1.228961	-3.686936	-8.602848
Rb	6.144817	-6.144897	-6.144897
Rb	3.686894	-3.686936	-6.144897
Be	4.915853	0.000000	-4.915916
Be	7.373785	-2.457961	-7.373878
O	5.824937	0.909160	-5.825076
O	3.367014	1.548791	-8.283037
O	8.282870	-1.548791	-6.464708
O	6.464691	-1.548791	-8.283037
O	5.824937	4.006752	-8.922669
O	8.922614	4.006752	-5.825076
O	8.922614	0.909160	-8.922669
O	11.380547	1.548791	-6.464708
Rb	3.686891	-1.228981	-8.602848
Rb	6.144814	1.228980	-8.602848
Rb	11.060670	-1.228980	-6.144897
Rb	8.602747	1.228981	-6.144897
