40

O	0.000000	2.183294	2.183294
O	2.183294	0.000000	2.183294
O	2.183294	2.183294	0.000000
Rb	2.183294	2.183294	2.183294
Zr	0.000000	0.000000	0.000000
O	0.000000	2.183294	6.549883
O	2.183294	0.000000	6.549883
O	2.183294	2.183294	4.366588
Rb	2.183294	2.183294	6.549883
Zr	0.000000	0.000000	4.366588
O	0.000000	6.549883	2.183294
O	2.183294	4.366588	2.183294
O	2.183294	6.549883	0.000000
Rb	2.183294	6.549883	2.183294
Zr	0.000000	4.366588	0.000000
O	0.000000	6.549883	6.549883
O	2.183294	4.366588	6.549883
O	2.183294	6.549883	4.366588
Rb	2.183294	6.549883	6.549883
Zr	0.000000	4.366588	4.366588
O	4.366588	2.183294	2.183294
O	6.549883	0.000000	2.183294
O	6.549883	2.183294	0.000000
Rb	6.549883	2.183294	2.183294
Zr	4.366588	0.000000	0.000000
O	4.366588	2.183294	6.549883
O	6.549883	0.000000	6.549883
O	6.549883	2.183294	4.366588
Rb	6.549883	2.183294	6.549883
Zr	4.366588	0.000000	4.366588
O	4.366588	6.549883	2.183294
O	6.549883	4.366588	2.183294
O	6.549883	6.549883	0.000000
Rb	6.549883	6.549883	2.183294
Zr	4.366588	4.366588	0.000000
O	4.366588	6.549883	6.549883
O	6.549883	4.366588	6.549883
O	6.549883	6.549883	4.366588
Rb	6.549883	6.549883	6.549883
Zr	4.366588	4.366588	4.366588
