40

O	2.156350	2.156350	0.000000
O	0.000000	2.156350	2.156350
O	2.156350	0.000000	2.156350
Rb_sv	2.156350	2.156350	2.156350
Zr_sv	0.000000	0.000000	0.000000
O	2.156350	2.156350	4.312690
O	0.000000	2.156350	6.469040
O	2.156350	0.000000	6.469040
Rb_sv	2.156350	2.156350	6.469040
Zr_sv	0.000000	0.000000	4.312690
O	2.156350	6.469040	0.000000
O	0.000000	6.469040	2.156350
O	2.156350	4.312690	2.156350
Rb_sv	2.156350	6.469040	2.156350
Zr_sv	0.000000	4.312690	0.000000
O	2.156350	6.469040	4.312690
O	0.000000	6.469040	6.469040
O	2.156350	4.312690	6.469040
Rb_sv	2.156350	6.469040	6.469040
Zr_sv	0.000000	4.312690	4.312690
O	6.469040	2.156350	0.000000
O	4.312690	2.156350	2.156350
O	6.469040	0.000000	2.156350
Rb_sv	6.469040	2.156350	2.156350
Zr_sv	4.312690	0.000000	0.000000
O	6.469040	2.156350	4.312690
O	4.312690	2.156350	6.469040
O	6.469040	0.000000	6.469040
Rb_sv	6.469040	2.156350	6.469040
Zr_sv	4.312690	0.000000	4.312690
O	6.469040	6.469040	0.000000
O	4.312690	6.469040	2.156350
O	6.469040	4.312690	2.156350
Rb_sv	6.469040	6.469040	2.156350
Zr_sv	4.312690	4.312690	0.000000
O	6.469040	6.469040	4.312690
O	4.312690	6.469040	6.469040
O	6.469040	4.312690	6.469040
Rb_sv	6.469040	6.469040	6.469040
Zr_sv	4.312690	4.312690	4.312690
