40

O	1.860870	1.860870	0.000000
O	0.000000	1.860870	1.860870
O	1.860870	0.000000	1.860870
Si	1.860870	1.860870	1.860870
Te	0.000000	0.000000	0.000000
O	1.860870	1.860870	3.721740
O	0.000000	1.860870	5.582610
O	1.860870	0.000000	5.582610
Si	1.860870	1.860870	5.582610
Te	0.000000	0.000000	3.721740
O	1.860870	5.582610	0.000000
O	0.000000	5.582610	1.860870
O	1.860870	3.721740	1.860870
Si	1.860870	5.582610	1.860870
Te	0.000000	3.721740	0.000000
O	1.860870	5.582610	3.721740
O	0.000000	5.582610	5.582610
O	1.860870	3.721740	5.582610
Si	1.860870	5.582610	5.582610
Te	0.000000	3.721740	3.721740
O	5.582610	1.860870	0.000000
O	3.721740	1.860870	1.860870
O	5.582610	0.000000	1.860870
Si	5.582610	1.860870	1.860870
Te	3.721740	0.000000	0.000000
O	5.582610	1.860870	3.721740
O	3.721740	1.860870	5.582610
O	5.582610	0.000000	5.582610
Si	5.582610	1.860870	5.582610
Te	3.721740	0.000000	3.721740
O	5.582610	5.582610	0.000000
O	3.721740	5.582610	1.860870
O	5.582610	3.721740	1.860870
Si	5.582610	5.582610	1.860870
Te	3.721740	3.721740	0.000000
O	5.582610	5.582610	3.721740
O	3.721740	5.582610	5.582610
O	5.582610	3.721740	5.582610
Si	5.582610	5.582610	5.582610
Te	3.721740	3.721740	3.721740
