112

O	-1.133717	1.132329	-3.596819
O	3.587591	-1.132329	-1.132329
O	1.133717	-1.132329	-3.596819
O	1.226937	1.232240	-1.232240
O	5.855025	1.132329	-1.132329
O	1.226937	3.496908	-3.496908
O	3.494371	3.496908	-1.232240
O	3.494371	1.232240	-3.496908
Pu	0.000000	0.000000	0.000000
Pu	2.360654	-2.364579	-2.364579
Yb	-1.180332	-1.182289	-3.546859
Yb	1.180332	1.182289	-3.546859
Yb	5.901640	-1.182289	-1.182289
Yb	3.540986	1.182289	-1.182289
O	3.587593	5.861479	-3.596819
O	8.308901	3.596822	-1.132329
O	5.855027	3.596822	-3.596819
O	5.948247	5.961391	-1.232240
O	10.576335	5.861479	-1.132329
O	5.948247	8.226058	-3.496908
O	8.215681	8.226058	-1.232240
O	8.215681	5.961391	-3.496908
Pu	4.721310	4.729150	0.000000
Pu	7.081964	2.364571	-2.364579
Yb	3.540978	3.546861	-3.546859
Yb	5.901642	5.911440	-3.546859
Yb	10.622950	3.546861	-1.182289
Yb	8.262296	5.911440	-1.182289
O	-5.855027	1.132329	-8.325970
O	-1.133719	-1.132329	-5.861479
O	-3.587593	-1.132329	-8.325970
O	-3.494373	1.232240	-5.961391
O	1.133715	1.132329	-5.861479
O	-3.494373	3.496908	-8.226058
O	-1.226939	3.496908	-5.961391
O	-1.226939	1.232240	-8.226058
Pu	-4.721310	0.000000	-4.729150
Pu	-2.360656	-2.364579	-7.093729
Yb	-5.901642	-1.182289	-8.276009
Yb	-3.540978	1.182289	-8.276009
Yb	1.180330	-1.182289	-5.911440
Yb	-1.180324	1.182289	-5.911440
O	-1.133717	5.861479	-8.325970
O	3.587591	3.596822	-5.861479
O	1.133717	3.596822	-8.325970
O	1.226937	5.961391	-5.961391
O	5.855025	5.861479	-5.861479
O	1.226937	8.226058	-8.226058
O	3.494371	8.226058	-5.961391
O	3.494371	5.961391	-8.226058
Pu	0.000000	4.729150	-4.729150
Pu	2.360654	2.364571	-7.093729
Yb	-1.180332	3.546861	-8.276009
Yb	1.180332	5.911440	-8.276009
Yb	5.901640	3.546861	-5.911440
Yb	3.540986	5.911440	-5.911440
O	3.587593	-3.596822	-3.596819
O	8.308901	-5.861479	-1.132329
O	5.855027	-5.861479	-3.596819
O	5.948247	-3.496910	-1.232240
O	10.576335	-3.596822	-1.132329
O	5.948247	-1.232243	-3.496908
O	8.215681	-1.232243	-1.232240
O	8.215681	-3.496910	-3.496908
Pu	4.721310	-4.729150	0.000000
Pu	7.081964	-7.093729	-2.364579
Yb	3.540978	-5.911440	-3.546859
Yb	5.901642	-3.546861	-3.546859
Yb	10.622950	-5.911440	-1.182289
Yb	8.262296	-3.546861	-1.182289
O	8.308903	1.132329	-3.596819
O	13.030211	-1.132329	-1.132329
O	10.576337	-1.132329	-3.596819
O	10.669557	1.232240	-1.232240
O	15.297645	1.132329	-1.132329
O	10.669557	3.496908	-3.496908
O	12.936991	3.496908	-1.232240
O	12.936991	1.232240	-3.496908
Pu	9.442620	0.000000	0.000000
Pu	11.803274	-2.364579	-2.364579
Yb	8.262288	-1.182289	-3.546859
Yb	10.622952	1.182289	-3.546859
Yb	15.344260	-1.182289	-1.182289
Yb	12.983606	1.182289	-1.182289
O	-1.133717	-3.596822	-8.325970
O	3.587591	-5.861479	-5.861479
O	1.133717	-5.861479	-8.325970
O	1.226937	-3.496910	-5.961391
O	5.855025	-3.596822	-5.861479
O	1.226937	-1.232243	-8.226058
O	3.494371	-1.232243	-5.961391
O	3.494371	-3.496910	-8.226058
Pu	0.000000	-4.729150	-4.729150
Pu	2.360654	-7.093729	-7.093729
Yb	-1.180332	-5.911440	-8.276009
Yb	1.180332	-3.546861	-8.276009
Yb	5.901640	-5.911440	-5.911440
Yb	3.540986	-3.546861	-5.911440
O	3.587593	1.132329	-8.325970
O	8.308901	-1.132329	-5.861479
O	5.855027	-1.132329	-8.325970
O	5.948247	1.232240	-5.961391
O	10.576335	1.132329	-5.861479
O	5.948247	3.496908	-8.226058
O	8.215681	3.496908	-5.961391
O	8.215681	1.232240	-8.226058
Pu	4.721310	0.000000	-4.729150
Pu	7.081964	-2.364579	-7.093729
Yb	3.540978	-1.182289	-8.276009
Yb	5.901642	1.182289	-8.276009
Yb	10.622950	-1.182289	-5.911440
Yb	8.262296	1.182289	-5.911440
