112

Ga	0.000000	0.000000	0.000000
Ga	2.153904	-2.154508	-2.154508
O	1.045895	-1.045799	-3.263226
O	3.261924	-1.045799	-1.045799
O	-1.045895	1.045799	-3.263226
O	1.108020	1.108708	-1.108708
O	5.353704	1.045799	-1.045799
O	3.199799	3.200307	-1.108708
O	3.199799	1.108708	-3.200307
O	1.108020	3.200307	-3.200307
Os	-1.076952	-1.077254	-3.231771
Os	5.384771	-1.077254	-1.077254
Os	3.230867	1.077254	-1.077254
Os	1.076952	1.077254	-3.231771
Ga	4.307817	4.309023	0.000000
Ga	6.461722	2.154516	-2.154508
O	5.353712	3.263224	-3.263226
O	7.569741	3.263224	-1.045799
O	3.261923	5.354823	-3.263226
O	5.415837	5.417732	-1.108708
O	9.661521	5.354823	-1.045799
O	7.507617	7.509331	-1.108708
O	7.507617	5.417732	-3.200307
O	5.415837	7.509331	-3.200307
Os	3.230865	3.231770	-3.231771
Os	9.692589	3.231770	-1.077254
Os	7.538684	5.386277	-1.077254
Os	5.384770	5.386277	-3.231771
Ga	-4.307817	0.000000	-4.309023
Ga	-2.153913	-2.154508	-6.463531
O	-3.261922	-1.045799	-7.572249
O	-1.045893	-1.045799	-5.354823
O	-5.353712	1.045799	-7.572249
O	-3.199798	1.108708	-5.417732
O	1.045886	1.045799	-5.354823
O	-1.108018	3.200307	-5.417732
O	-1.108018	1.108708	-7.509331
O	-3.199798	3.200307	-7.509331
Os	-5.384770	-1.077254	-7.540795
Os	1.076954	-1.077254	-5.386277
Os	-1.076951	1.077254	-5.386277
Os	-3.230865	1.077254	-7.540795
Ga	0.000000	4.309023	-4.309023
Ga	2.153904	2.154516	-6.463531
O	1.045895	3.263224	-7.572249
O	3.261924	3.263224	-5.354823
O	-1.045895	5.354823	-7.572249
O	1.108020	5.417732	-5.417732
O	5.353704	5.354823	-5.354823
O	3.199799	7.509331	-5.417732
O	3.199799	5.417732	-7.509331
O	1.108020	7.509331	-7.509331
Os	-1.076952	3.231770	-7.540795
Os	5.384771	3.231770	-5.386277
Os	3.230867	5.386277	-5.386277
Os	1.076952	5.386277	-7.540795
Ga	4.307817	-4.309023	0.000000
Ga	6.461722	-6.463531	-2.154508
O	5.353712	-5.354823	-3.263226
O	7.569741	-5.354823	-1.045799
O	3.261923	-3.263224	-3.263226
O	5.415837	-3.200315	-1.108708
O	9.661521	-3.263224	-1.045799
O	7.507617	-1.108716	-1.108708
O	7.507617	-3.200315	-3.200307
O	5.415837	-1.108716	-3.200307
Os	3.230865	-5.386277	-3.231771
Os	9.692589	-5.386277	-1.077254
Os	7.538684	-3.231770	-1.077254
Os	5.384770	-3.231770	-3.231771
Ga	8.615635	0.000000	0.000000
Ga	10.769539	-2.154508	-2.154508
O	9.661530	-1.045799	-3.263226
O	11.877559	-1.045799	-1.045799
O	7.569740	1.045799	-3.263226
O	9.723654	1.108708	-1.108708
O	13.969339	1.045799	-1.045799
O	11.815434	3.200307	-1.108708
O	11.815434	1.108708	-3.200307
O	9.723654	3.200307	-3.200307
Os	7.538683	-1.077254	-3.231771
Os	14.000406	-1.077254	-1.077254
Os	11.846501	1.077254	-1.077254
Os	9.692587	1.077254	-3.231771
Ga	0.000000	-4.309023	-4.309023
Ga	2.153904	-6.463531	-6.463531
O	1.045895	-5.354823	-7.572249
O	3.261924	-5.354823	-5.354823
O	-1.045895	-3.263224	-7.572249
O	1.108020	-3.200315	-5.417732
O	5.353704	-3.263224	-5.354823
O	3.199799	-1.108716	-5.417732
O	3.199799	-3.200315	-7.509331
O	1.108020	-1.108716	-7.509331
Os	-1.076952	-5.386277	-7.540795
Os	5.384771	-5.386277	-5.386277
Os	3.230867	-3.231770	-5.386277
Os	1.076952	-3.231770	-7.540795
Ga	4.307817	0.000000	-4.309023
Ga	6.461722	-2.154508	-6.463531
O	5.353712	-1.045799	-7.572249
O	7.569741	-1.045799	-5.354823
O	3.261923	1.045799	-7.572249
O	5.415837	1.108708	-5.417732
O	9.661521	1.045799	-5.354823
O	7.507617	3.200307	-5.417732
O	7.507617	1.108708	-7.509331
O	5.415837	3.200307	-7.509331
Os	3.230865	-1.077254	-7.540795
Os	9.692589	-1.077254	-5.386277
Os	7.538684	1.077254	-5.386277
Os	5.384770	1.077254	-7.540795
