40

Ag	0.000000	0.000000	0.000000
Nb	2.015413	2.015413	2.015413
O	2.015413	2.015413	0.000000
O	2.015413	0.000000	2.015413
O	0.000000	2.015413	2.015413
Ag	0.000000	0.000000	4.030826
Nb	2.015413	2.015413	6.046239
O	2.015413	2.015413	4.030826
O	2.015413	0.000000	6.046239
O	0.000000	2.015413	6.046239
Ag	0.000000	4.030826	0.000000
Nb	2.015413	6.046239	2.015413
O	2.015413	6.046239	0.000000
O	2.015413	4.030826	2.015413
O	0.000000	6.046239	2.015413
Ag	0.000000	4.030826	4.030826
Nb	2.015413	6.046239	6.046239
O	2.015413	6.046239	4.030826
O	2.015413	4.030826	6.046239
O	0.000000	6.046239	6.046239
Ag	4.030826	0.000000	0.000000
Nb	6.046239	2.015413	2.015413
O	6.046239	2.015413	0.000000
O	6.046239	0.000000	2.015413
O	4.030826	2.015413	2.015413
Ag	4.030826	0.000000	4.030826
Nb	6.046239	2.015413	6.046239
O	6.046239	2.015413	4.030826
O	6.046239	0.000000	6.046239
O	4.030826	2.015413	6.046239
Ag	4.030826	4.030826	0.000000
Nb	6.046239	6.046239	2.015413
O	6.046239	6.046239	0.000000
O	6.046239	4.030826	2.015413
O	4.030826	6.046239	2.015413
Ag	4.030826	4.030826	4.030826
Nb	6.046239	6.046239	6.046239
O	6.046239	6.046239	4.030826
O	6.046239	4.030826	6.046239
O	4.030826	6.046239	6.046239
