112

Co	0.000000	0.000000	0.000000
Co	2.109935	-2.109935	-2.109935
Fe	-1.054967	-1.054967	-3.164902
Fe	3.164902	1.054967	-1.054967
Fe	5.274837	-1.054967	-1.054967
Fe	1.054967	1.054967	-3.164902
O	3.250176	-0.969694	-0.969694
O	-0.969694	0.969694	-3.250176
O	0.969694	-0.969694	-3.250176
O	1.140241	1.140241	-1.140241
O	5.189563	0.969694	-0.969694
O	3.079628	3.079628	-1.140241
O	1.140241	3.079628	-3.079628
O	3.079628	1.140241	-3.079628
Co	4.219869	4.219869	0.000000
Co	6.329804	2.109935	-2.109935
Fe	3.164902	3.164902	-3.164902
Fe	7.384771	5.274837	-1.054967
Fe	9.494706	3.164902	-1.054967
Fe	5.274837	5.274837	-3.164902
O	7.470045	3.250176	-0.969694
O	3.250176	5.189563	-3.250176
O	5.189563	3.250176	-3.250176
O	5.360110	5.360110	-1.140241
O	9.409432	5.189563	-0.969694
O	7.299498	7.299498	-1.140241
O	5.360110	7.299498	-3.079628
O	7.299498	5.360110	-3.079628
Co	-4.219869	0.000000	-4.219869
Co	-2.109935	-2.109935	-6.329804
Fe	-5.274837	-1.054967	-7.384771
Fe	-1.054967	1.054967	-5.274837
Fe	1.054967	-1.054967	-5.274837
Fe	-3.164902	1.054967	-7.384771
O	-0.969694	-0.969694	-5.189563
O	-5.189563	0.969694	-7.470045
O	-3.250176	-0.969694	-7.470045
O	-3.079628	1.140241	-5.360110
O	0.969694	0.969694	-5.189563
O	-1.140241	3.079628	-5.360110
O	-3.079628	3.079628	-7.299498
O	-1.140241	1.140241	-7.299498
Co	0.000000	4.219869	-4.219869
Co	2.109935	2.109935	-6.329804
Fe	-1.054967	3.164902	-7.384771
Fe	3.164902	5.274837	-5.274837
Fe	5.274837	3.164902	-5.274837
Fe	1.054967	5.274837	-7.384771
O	3.250176	3.250176	-5.189563
O	-0.969694	5.189563	-7.470045
O	0.969694	3.250176	-7.470045
O	1.140241	5.360110	-5.360110
O	5.189563	5.189563	-5.189563
O	3.079628	7.299498	-5.360110
O	1.140241	7.299498	-7.299498
O	3.079628	5.360110	-7.299498
Co	4.219869	-4.219869	0.000000
Co	6.329804	-6.329804	-2.109935
Fe	3.164902	-5.274837	-3.164902
Fe	7.384771	-3.164902	-1.054967
Fe	9.494706	-5.274837	-1.054967
Fe	5.274837	-3.164902	-3.164902
O	7.470045	-5.189563	-0.969694
O	3.250176	-3.250176	-3.250176
O	5.189563	-5.189563	-3.250176
O	5.360110	-3.079628	-1.140241
O	9.409432	-3.250176	-0.969694
O	7.299498	-1.140241	-1.140241
O	5.360110	-1.140241	-3.079628
O	7.299498	-3.079628	-3.079628
Co	8.439739	0.000000	0.000000
Co	10.549673	-2.109935	-2.109935
Fe	7.384771	-1.054967	-3.164902
Fe	11.604641	1.054967	-1.054967
Fe	13.714575	-1.054967	-1.054967
Fe	9.494706	1.054967	-3.164902
O	11.689914	-0.969694	-0.969694
O	7.470045	0.969694	-3.250176
O	9.409432	-0.969694	-3.250176
O	9.579980	1.140241	-1.140241
O	13.629302	0.969694	-0.969694
O	11.519367	3.079628	-1.140241
O	9.579980	3.079628	-3.079628
O	11.519367	1.140241	-3.079628
Co	0.000000	-4.219869	-4.219869
Co	2.109935	-6.329804	-6.329804
Fe	-1.054967	-5.274837	-7.384771
Fe	3.164902	-3.164902	-5.274837
Fe	5.274837	-5.274837	-5.274837
Fe	1.054967	-3.164902	-7.384771
O	3.250176	-5.189563	-5.189563
O	-0.969694	-3.250176	-7.470045
O	0.969694	-5.189563	-7.470045
O	1.140241	-3.079628	-5.360110
O	5.189563	-3.250176	-5.189563
O	3.079628	-1.140241	-5.360110
O	1.140241	-1.140241	-7.299498
O	3.079628	-3.079628	-7.299498
Co	4.219869	0.000000	-4.219869
Co	6.329804	-2.109935	-6.329804
Fe	3.164902	-1.054967	-7.384771
Fe	7.384771	1.054967	-5.274837
Fe	9.494706	-1.054967	-5.274837
Fe	5.274837	1.054967	-7.384771
O	7.470045	-0.969694	-5.189563
O	3.250176	0.969694	-7.470045
O	5.189563	-0.969694	-7.470045
O	5.360110	1.140241	-5.360110
O	9.409432	0.969694	-5.189563
O	7.299498	3.079628	-5.360110
O	5.360110	3.079628	-7.299498
O	7.299498	1.140241	-7.299498
