40

O	2.058510	2.058510	0.000000
O	0.000000	2.058510	2.058510
O	2.058510	0.000000	2.058510
Re	0.000000	0.000000	0.000000
Zr_sv	2.058510	2.058510	2.058510
O	2.058510	2.058510	4.117006
O	0.000000	2.058510	6.175516
O	2.058510	0.000000	6.175516
Re	0.000000	0.000000	4.117006
Zr_sv	2.058510	2.058510	6.175516
O	2.058510	6.175516	0.000000
O	0.000000	6.175516	2.058510
O	2.058510	4.117006	2.058510
Re	0.000000	4.117006	0.000000
Zr_sv	2.058510	6.175516	2.058510
O	2.058510	6.175516	4.117006
O	0.000000	6.175516	6.175516
O	2.058510	4.117006	6.175516
Re	0.000000	4.117006	4.117006
Zr_sv	2.058510	6.175516	6.175516
O	6.175516	2.058510	0.000000
O	4.117006	2.058510	2.058510
O	6.175516	0.000000	2.058510
Re	4.117006	0.000000	0.000000
Zr_sv	6.175516	2.058510	2.058510
O	6.175516	2.058510	4.117006
O	4.117006	2.058510	6.175516
O	6.175516	0.000000	6.175516
Re	4.117006	0.000000	4.117006
Zr_sv	6.175516	2.058510	6.175516
O	6.175516	6.175516	0.000000
O	4.117006	6.175516	2.058510
O	6.175516	4.117006	2.058510
Re	4.117006	4.117006	0.000000
Zr_sv	6.175516	6.175516	2.058510
O	6.175516	6.175516	4.117006
O	4.117006	6.175516	6.175516
O	6.175516	4.117006	6.175516
Re	4.117006	4.117006	4.117006
Zr_sv	6.175516	6.175516	6.175516
