160

Mn	0.000000	-3.728848	0.000000
Mn	-3.751730	0.000000	-0.028970
Mn	-0.033825	0.000000	3.742571
Mn	-1.892778	-1.864424	1.856801
Mn	-1.892778	1.864424	1.856801
Mn	1.858953	-1.864424	1.885770
Mn	-1.858953	-1.864424	-1.885770
O	-2.401644	-3.728848	-1.453151
O	-0.047890	-2.290617	1.315063
O	-0.047890	-5.167079	1.315063
O	-2.304110	-1.312508	-0.038156
O	1.413796	-2.416340	3.733385
O	-1.317705	-0.000000	2.270116
O	-2.467850	-3.728848	1.443486
O	-5.199351	-1.312508	-0.019783
O	-1.481446	-2.416340	3.751758
O	-3.737666	1.438231	2.398538
O	-3.737666	-1.438231	2.398538
O	-1.383912	-0.000000	5.166752
Pr	0.000000	0.000000	0.000000
Mn	-3.785555	0.000000	3.713601
Mn	-7.537286	3.728848	3.684632
Mn	-3.819380	3.728848	7.456173
Mn	-5.678333	1.864424	5.570402
Mn	-5.678333	5.593272	5.570402
Mn	-1.926603	1.864424	5.599372
Mn	-5.644508	1.864424	1.827831
O	-6.187199	0.000000	2.260451
O	-3.833445	1.438231	5.028665
O	-3.833445	-1.438231	5.028665
O	-6.089665	2.416340	3.675445
O	-2.371760	1.312508	7.446986
O	-5.103260	3.728848	5.983717
O	-6.253406	0.000000	5.157087
O	-8.984906	2.416340	3.693818
O	-5.267001	1.312508	7.465359
O	-7.523221	5.167079	6.112140
O	-7.523221	2.290617	6.112140
O	-5.169467	3.728848	8.880354
Pr	-3.785555	3.728848	3.713601
Mn	3.717906	-7.457696	3.771541
Mn	-0.033825	-3.728848	3.742571
Mn	3.684081	-3.728848	7.514112
Mn	1.825128	-5.593272	5.628341
Mn	1.825128	-1.864424	5.628341
Mn	5.576858	-5.593272	5.657311
Mn	1.858953	-5.593272	1.885770
O	1.316262	-7.457696	2.318390
O	3.670016	-6.019465	5.086604
O	3.670016	-8.895927	5.086604
O	1.413796	-5.041356	3.733385
O	5.131701	-6.145188	7.504925
O	2.400201	-3.728848	6.041656
O	1.250055	-7.457696	5.215027
O	-1.481446	-5.041356	3.751758
O	2.236460	-6.145188	7.523298
O	-0.019760	-2.290617	6.170079
O	-0.019760	-5.167079	6.170079
O	2.333994	-3.728848	8.938293
Pr	3.717906	-3.728848	3.771541
Mn	-0.067650	-3.728848	7.485142
Mn	-3.819380	0.000000	7.456173
Mn	-0.101475	0.000000	11.227713
Mn	-1.960427	-1.864424	9.341943
Mn	-1.960427	1.864424	9.341943
Mn	1.791303	-1.864424	9.370913
Mn	-1.926603	-1.864424	5.599372
O	-2.469293	-3.728848	6.031992
O	-0.115540	-2.290617	8.800205
O	-0.115540	-5.167079	8.800205
O	-2.371760	-1.312508	7.446986
O	1.346146	-2.416340	11.218527
O	-1.385355	0.000000	9.755258
O	-2.535500	-3.728848	8.928628
O	-5.267001	-1.312508	7.465359
O	-1.549095	-2.416340	11.236900
O	-3.805315	1.438231	9.883681
O	-3.805315	-1.438231	9.883681
O	-1.451561	0.000000	12.651894
Pr	-0.067650	0.000000	7.485142
Mn	-3.717906	-7.457696	-3.771541
Mn	-7.469636	-3.728848	-3.800510
Mn	-3.751730	-3.728848	-0.028970
Mn	-5.610683	-5.593272	-1.914740
Mn	-5.610683	-1.864424	-1.914740
Mn	-1.858953	-5.593272	-1.885770
Mn	-5.576858	-5.593272	-5.657311
O	-6.119549	-7.457696	-5.224691
O	-3.765795	-6.019465	-2.456478
O	-3.765795	-8.895927	-2.456478
O	-6.022015	-5.041356	-3.809697
O	-2.304110	-6.145188	-0.038156
O	-5.035611	-3.728848	-1.501425
O	-6.185756	-7.457696	-2.328055
O	-8.917257	-5.041356	-3.791324
O	-5.199351	-6.145188	-0.019783
O	-7.455571	-2.290617	-1.373002
O	-7.455571	-5.167079	-1.373002
O	-5.101817	-3.728848	1.395211
Pr	-3.717906	-3.728848	-3.771541
Mn	-7.503461	-3.728848	-0.057939
Mn	-11.255191	0.000000	-0.086909
Mn	-7.537286	0.000000	3.684632
Mn	-9.396239	-1.864424	1.798861
Mn	-9.396239	1.864424	1.798861
Mn	-5.644508	-1.864424	1.827831
Mn	-9.362414	-1.864424	-1.943710
O	-9.905104	-3.728848	-1.511090
O	-7.551351	-2.290617	1.257124
O	-7.551351	-5.167079	1.257124
O	-9.807571	-1.312508	-0.096095
O	-6.089665	-2.416340	3.675445
O	-8.821166	0.000000	2.212176
O	-9.971311	-3.728848	1.385547
O	-12.702812	-1.312508	-0.077722
O	-8.984906	-2.416340	3.693818
O	-11.241126	1.438231	2.340599
O	-11.241126	-1.438231	2.340599
O	-8.887373	0.000000	5.108813
Pr	-7.503461	0.000000	-0.057939
Mn	0.000000	-11.186544	0.000000
Mn	-3.751730	-7.457696	-0.028970
Mn	-0.033825	-7.457696	3.742571
Mn	-1.892778	-9.322120	1.856801
Mn	-1.892778	-5.593272	1.856801
Mn	1.858953	-9.322120	1.885770
Mn	-1.858953	-9.322120	-1.885770
O	-2.401644	-11.186544	-1.453151
O	-0.047890	-9.748313	1.315063
O	-0.047890	-12.624775	1.315063
O	-2.304110	-8.770204	-0.038156
O	1.413796	-9.874036	3.733385
O	-1.317705	-7.457696	2.270116
O	-2.467850	-11.186544	1.443486
O	-5.199351	-8.770204	-0.019783
O	-1.481446	-9.874036	3.751758
O	-3.737666	-6.019465	2.398538
O	-3.737666	-8.895927	2.398538
O	-1.383912	-7.457696	5.166752
Pr	0.000000	-7.457696	0.000000
Mn	-3.785555	-7.457696	3.713601
Mn	-7.537286	-3.728848	3.684632
Mn	-3.819380	-3.728848	7.456173
Mn	-5.678333	-5.593272	5.570402
Mn	-5.678333	-1.864424	5.570402
Mn	-1.926603	-5.593272	5.599372
Mn	-5.644508	-5.593272	1.827831
O	-6.187199	-7.457696	2.260451
O	-3.833445	-6.019465	5.028665
O	-3.833445	-8.895927	5.028665
O	-6.089665	-5.041356	3.675445
O	-2.371760	-6.145188	7.446986
O	-5.103260	-3.728848	5.983717
O	-6.253406	-7.457696	5.157087
O	-8.984906	-5.041356	3.693818
O	-5.267001	-6.145188	7.465359
O	-7.523221	-2.290617	6.112140
O	-7.523221	-5.167079	6.112140
O	-5.169467	-3.728848	8.880354
Pr	-3.785555	-3.728848	3.713601
