112

Be	0.000000	0.000000	0.000000
Be	2.252383	-2.252350	-2.252350
O	3.330739	-1.173800	-1.173800
O	-1.174026	1.173800	-3.330899
O	1.174026	-1.173800	-3.330899
O	1.078356	1.078549	-1.078549
O	5.678792	1.173800	-1.173800
O	1.078356	3.426150	-3.426150
O	3.426409	3.426150	-1.078549
O	3.426409	1.078549	-3.426150
Tb	-1.126191	-1.126175	-3.378525
Tb	3.378574	1.126175	-1.126175
Tb	5.630957	-1.126175	-1.126175
Tb	1.126191	1.126175	-3.378525
Be	4.504766	4.504699	0.000000
Be	6.757148	2.252350	-2.252350
O	7.835505	3.330899	-1.173800
O	3.330739	5.678500	-3.330899
O	5.678792	3.330899	-3.330899
O	5.583122	5.583249	-1.078549
O	10.183557	5.678500	-1.173800
O	5.583122	7.930850	-3.426150
O	7.931175	7.930850	-1.078549
O	7.931175	5.583249	-3.426150
Tb	3.378574	3.378525	-3.378525
Tb	7.883340	5.630874	-1.126175
Tb	10.135722	3.378525	-1.126175
Tb	5.630957	5.630874	-3.378525
Be	-4.504766	0.000000	-4.504699
Be	-2.252383	-2.252350	-6.757049
O	-1.174026	-1.173800	-5.678500
O	-5.678792	1.173800	-7.835598
O	-3.330739	-1.173800	-7.835598
O	-3.426409	1.078549	-5.583249
O	1.174026	1.173800	-5.678500
O	-3.426409	3.426150	-7.930850
O	-1.078356	3.426150	-5.583249
O	-1.078356	1.078549	-7.930850
Tb	-5.630957	-1.126175	-7.883224
Tb	-1.126191	1.126175	-5.630874
Tb	1.126191	-1.126175	-5.630874
Tb	-3.378574	1.126175	-7.883224
Be	0.000000	4.504699	-4.504699
Be	2.252383	2.252350	-6.757049
O	3.330739	3.330899	-5.678500
O	-1.174026	5.678500	-7.835598
O	1.174026	3.330899	-7.835598
O	1.078356	5.583249	-5.583249
O	5.678792	5.678500	-5.678500
O	1.078356	7.930850	-7.930850
O	3.426409	7.930850	-5.583249
O	3.426409	5.583249	-7.930850
Tb	-1.126191	3.378525	-7.883224
Tb	3.378574	5.630874	-5.630874
Tb	5.630957	3.378525	-5.630874
Tb	1.126191	5.630874	-7.883224
Be	4.504766	-4.504699	0.000000
Be	6.757148	-6.757049	-2.252350
O	7.835505	-5.678500	-1.173800
O	3.330739	-3.330899	-3.330899
O	5.678792	-5.678500	-3.330899
O	5.583122	-3.426150	-1.078549
O	10.183557	-3.330899	-1.173800
O	5.583122	-1.078549	-3.426150
O	7.931175	-1.078549	-1.078549
O	7.931175	-3.426150	-3.426150
Tb	3.378574	-5.630874	-3.378525
Tb	7.883340	-3.378525	-1.126175
Tb	10.135722	-5.630874	-1.126175
Tb	5.630957	-3.378525	-3.378525
Be	9.009531	0.000000	0.000000
Be	11.261914	-2.252350	-2.252350
O	12.340270	-1.173800	-1.173800
O	7.835505	1.173800	-3.330899
O	10.183557	-1.173800	-3.330899
O	10.087887	1.078549	-1.078549
O	14.688323	1.173800	-1.173800
O	10.087887	3.426150	-3.426150
O	12.435940	3.426150	-1.078549
O	12.435940	1.078549	-3.426150
Tb	7.883340	-1.126175	-3.378525
Tb	12.388105	1.126175	-1.126175
Tb	14.640488	-1.126175	-1.126175
Tb	10.135722	1.126175	-3.378525
Be	0.000000	-4.504699	-4.504699
Be	2.252383	-6.757049	-6.757049
O	3.330739	-5.678500	-5.678500
O	-1.174026	-3.330899	-7.835598
O	1.174026	-5.678500	-7.835598
O	1.078356	-3.426150	-5.583249
O	5.678792	-3.330899	-5.678500
O	1.078356	-1.078549	-7.930850
O	3.426409	-1.078549	-5.583249
O	3.426409	-3.426150	-7.930850
Tb	-1.126191	-5.630874	-7.883224
Tb	3.378574	-3.378525	-5.630874
Tb	5.630957	-5.630874	-5.630874
Tb	1.126191	-3.378525	-7.883224
Be	4.504766	0.000000	-4.504699
Be	6.757148	-2.252350	-6.757049
O	7.835505	-1.173800	-5.678500
O	3.330739	1.173800	-7.835598
O	5.678792	-1.173800	-7.835598
O	5.583122	1.078549	-5.583249
O	10.183557	1.173800	-5.678500
O	5.583122	3.426150	-7.930850
O	7.931175	3.426150	-5.583249
O	7.931175	1.078549	-7.930850
Tb	3.378574	-1.126175	-7.883224
Tb	7.883340	1.126175	-5.630874
Tb	10.135722	-1.126175	-5.630874
Tb	5.630957	1.126175	-7.883224
