40

Cs	2.689482	2.689482	2.689482
N	0.000000	0.000000	0.000000
O	0.000000	2.689482	2.689482
O	2.689482	0.000000	2.689482
O	2.689482	2.689482	0.000000
Cs	2.689482	2.689482	8.068445
N	0.000000	0.000000	5.378963
O	0.000000	2.689482	8.068445
O	2.689482	0.000000	8.068445
O	2.689482	2.689482	5.378963
Cs	2.689482	8.068445	2.689482
N	0.000000	5.378963	0.000000
O	0.000000	8.068445	2.689482
O	2.689482	5.378963	2.689482
O	2.689482	8.068445	0.000000
Cs	2.689482	8.068445	8.068445
N	0.000000	5.378963	5.378963
O	0.000000	8.068445	8.068445
O	2.689482	5.378963	8.068445
O	2.689482	8.068445	5.378963
Cs	8.068445	2.689482	2.689482
N	5.378963	0.000000	0.000000
O	5.378963	2.689482	2.689482
O	8.068445	0.000000	2.689482
O	8.068445	2.689482	0.000000
Cs	8.068445	2.689482	8.068445
N	5.378963	0.000000	5.378963
O	5.378963	2.689482	8.068445
O	8.068445	0.000000	8.068445
O	8.068445	2.689482	5.378963
Cs	8.068445	8.068445	2.689482
N	5.378963	5.378963	0.000000
O	5.378963	8.068445	2.689482
O	8.068445	5.378963	2.689482
O	8.068445	8.068445	0.000000
Cs	8.068445	8.068445	8.068445
N	5.378963	5.378963	5.378963
O	5.378963	8.068445	8.068445
O	8.068445	5.378963	8.068445
O	8.068445	8.068445	5.378963
