40

Al	0.000000	0.000000	0.000000
I	2.099740	2.099740	2.099740
O	0.000000	2.099740	2.099740
O	2.099740	0.000000	2.099740
O	2.099740	2.099740	0.000000
Al	0.000000	0.000000	4.199480
I	2.099740	2.099740	6.299220
O	0.000000	2.099740	6.299220
O	2.099740	0.000000	6.299220
O	2.099740	2.099740	4.199480
Al	0.000000	4.199480	0.000000
I	2.099740	6.299220	2.099740
O	0.000000	6.299220	2.099740
O	2.099740	4.199480	2.099740
O	2.099740	6.299220	0.000000
Al	0.000000	4.199480	4.199480
I	2.099740	6.299220	6.299220
O	0.000000	6.299220	6.299220
O	2.099740	4.199480	6.299220
O	2.099740	6.299220	4.199480
Al	4.199480	0.000000	0.000000
I	6.299220	2.099740	2.099740
O	4.199480	2.099740	2.099740
O	6.299220	0.000000	2.099740
O	6.299220	2.099740	0.000000
Al	4.199480	0.000000	4.199480
I	6.299220	2.099740	6.299220
O	4.199480	2.099740	6.299220
O	6.299220	0.000000	6.299220
O	6.299220	2.099740	4.199480
Al	4.199480	4.199480	0.000000
I	6.299220	6.299220	2.099740
O	4.199480	6.299220	2.099740
O	6.299220	4.199480	2.099740
O	6.299220	6.299220	0.000000
Al	4.199480	4.199480	4.199480
I	6.299220	6.299220	6.299220
O	4.199480	6.299220	6.299220
O	6.299220	4.199480	6.299220
O	6.299220	6.299220	4.199480
