40

Ga	0.000000	0.000000	0.000000
Hg	2.093767	2.093767	2.093767
O	2.093767	2.093767	0.000000
O	2.093767	0.000000	2.093767
O	0.000000	2.093767	2.093767
Ga	0.000000	0.000000	4.187534
Hg	2.093767	2.093767	6.281301
O	2.093767	2.093767	4.187534
O	2.093767	0.000000	6.281301
O	0.000000	2.093767	6.281301
Ga	0.000000	4.187534	0.000000
Hg	2.093767	6.281301	2.093767
O	2.093767	6.281301	0.000000
O	2.093767	4.187534	2.093767
O	0.000000	6.281301	2.093767
Ga	0.000000	4.187534	4.187534
Hg	2.093767	6.281301	6.281301
O	2.093767	6.281301	4.187534
O	2.093767	4.187534	6.281301
O	0.000000	6.281301	6.281301
Ga	4.187534	0.000000	0.000000
Hg	6.281301	2.093767	2.093767
O	6.281301	2.093767	0.000000
O	6.281301	0.000000	2.093767
O	4.187534	2.093767	2.093767
Ga	4.187534	0.000000	4.187534
Hg	6.281301	2.093767	6.281301
O	6.281301	2.093767	4.187534
O	6.281301	0.000000	6.281301
O	4.187534	2.093767	6.281301
Ga	4.187534	4.187534	0.000000
Hg	6.281301	6.281301	2.093767
O	6.281301	6.281301	0.000000
O	6.281301	4.187534	2.093767
O	4.187534	6.281301	2.093767
Ga	4.187534	4.187534	4.187534
Hg	6.281301	6.281301	6.281301
O	6.281301	6.281301	4.187534
O	6.281301	4.187534	6.281301
O	4.187534	6.281301	6.281301
