40

Ga	0.000000	0.000000	0.000000
Hg	2.089592	2.089592	2.089592
O	0.000000	2.089592	2.089592
O	2.089592	0.000000	2.089592
O	2.089592	2.089592	0.000000
Ga	0.000000	0.000000	4.179183
Hg	2.089592	2.089592	6.268775
O	0.000000	2.089592	6.268775
O	2.089592	0.000000	6.268775
O	2.089592	2.089592	4.179183
Ga	0.000000	4.179183	0.000000
Hg	2.089592	6.268775	2.089592
O	0.000000	6.268775	2.089592
O	2.089592	4.179183	2.089592
O	2.089592	6.268775	0.000000
Ga	0.000000	4.179183	4.179183
Hg	2.089592	6.268775	6.268775
O	0.000000	6.268775	6.268775
O	2.089592	4.179183	6.268775
O	2.089592	6.268775	4.179183
Ga	4.179183	0.000000	0.000000
Hg	6.268775	2.089592	2.089592
O	4.179183	2.089592	2.089592
O	6.268775	0.000000	2.089592
O	6.268775	2.089592	0.000000
Ga	4.179183	0.000000	4.179183
Hg	6.268775	2.089592	6.268775
O	4.179183	2.089592	6.268775
O	6.268775	0.000000	6.268775
O	6.268775	2.089592	4.179183
Ga	4.179183	4.179183	0.000000
Hg	6.268775	6.268775	2.089592
O	4.179183	6.268775	2.089592
O	6.268775	4.179183	2.089592
O	6.268775	6.268775	0.000000
Ga	4.179183	4.179183	4.179183
Hg	6.268775	6.268775	6.268775
O	4.179183	6.268775	6.268775
O	6.268775	4.179183	6.268775
O	6.268775	6.268775	4.179183
