40

Cr	1.933610	1.933610	1.933610
O	1.933610	0.000000	1.933610
O	0.000000	1.933610	1.933610
O	1.933610	1.933610	0.000000
Pu	0.000000	0.000000	0.000000
Cr	1.933610	1.933610	5.800836
O	1.933610	0.000000	5.800836
O	0.000000	1.933610	5.800836
O	1.933610	1.933610	3.867226
Pu	0.000000	0.000000	3.867226
Cr	1.933610	5.800836	1.933610
O	1.933610	3.867226	1.933610
O	0.000000	5.800836	1.933610
O	1.933610	5.800836	0.000000
Pu	0.000000	3.867226	0.000000
Cr	1.933610	5.800836	5.800836
O	1.933610	3.867226	5.800836
O	0.000000	5.800836	5.800836
O	1.933610	5.800836	3.867226
Pu	0.000000	3.867226	3.867226
Cr	5.800836	1.933610	1.933610
O	5.800836	0.000000	1.933610
O	3.867226	1.933610	1.933610
O	5.800836	1.933610	0.000000
Pu	3.867226	0.000000	0.000000
Cr	5.800836	1.933610	5.800836
O	5.800836	0.000000	5.800836
O	3.867226	1.933610	5.800836
O	5.800836	1.933610	3.867226
Pu	3.867226	0.000000	3.867226
Cr	5.800836	5.800836	1.933610
O	5.800836	3.867226	1.933610
O	3.867226	5.800836	1.933610
O	5.800836	5.800836	0.000000
Pu	3.867226	3.867226	0.000000
Cr	5.800836	5.800836	5.800836
O	5.800836	3.867226	5.800836
O	3.867226	5.800836	5.800836
O	5.800836	5.800836	3.867226
Pu	3.867226	3.867226	3.867226
