40

Cr	1.950004	1.950004	1.950004
O	1.950004	1.950004	0.000000
O	1.950004	0.000000	1.950004
O	0.000000	1.950004	1.950004
Pu	0.000000	0.000000	0.000000
Cr	1.950004	1.950004	5.850012
O	1.950004	1.950004	3.900008
O	1.950004	0.000000	5.850012
O	0.000000	1.950004	5.850012
Pu	0.000000	0.000000	3.900008
Cr	1.950004	5.850012	1.950004
O	1.950004	5.850012	0.000000
O	1.950004	3.900008	1.950004
O	0.000000	5.850012	1.950004
Pu	0.000000	3.900008	0.000000
Cr	1.950004	5.850012	5.850012
O	1.950004	5.850012	3.900008
O	1.950004	3.900008	5.850012
O	0.000000	5.850012	5.850012
Pu	0.000000	3.900008	3.900008
Cr	5.850012	1.950004	1.950004
O	5.850012	1.950004	0.000000
O	5.850012	0.000000	1.950004
O	3.900008	1.950004	1.950004
Pu	3.900008	0.000000	0.000000
Cr	5.850012	1.950004	5.850012
O	5.850012	1.950004	3.900008
O	5.850012	0.000000	5.850012
O	3.900008	1.950004	5.850012
Pu	3.900008	0.000000	3.900008
Cr	5.850012	5.850012	1.950004
O	5.850012	5.850012	0.000000
O	5.850012	3.900008	1.950004
O	3.900008	5.850012	1.950004
Pu	3.900008	3.900008	0.000000
Cr	5.850012	5.850012	5.850012
O	5.850012	5.850012	3.900008
O	5.850012	3.900008	5.850012
O	3.900008	5.850012	5.850012
Pu	3.900008	3.900008	3.900008
