40

Cr	0.000000	0.000000	0.000000
Mo	1.968781	1.968781	1.968781
O	0.000000	1.968781	1.968781
O	1.968781	0.000000	1.968781
O	1.968781	1.968781	0.000000
Cr	0.000000	0.000000	3.937562
Mo	1.968781	1.968781	5.906343
O	0.000000	1.968781	5.906343
O	1.968781	0.000000	5.906343
O	1.968781	1.968781	3.937562
Cr	0.000000	3.937562	0.000000
Mo	1.968781	5.906343	1.968781
O	0.000000	5.906343	1.968781
O	1.968781	3.937562	1.968781
O	1.968781	5.906343	0.000000
Cr	0.000000	3.937562	3.937562
Mo	1.968781	5.906343	5.906343
O	0.000000	5.906343	5.906343
O	1.968781	3.937562	5.906343
O	1.968781	5.906343	3.937562
Cr	3.937562	0.000000	0.000000
Mo	5.906343	1.968781	1.968781
O	3.937562	1.968781	1.968781
O	5.906343	0.000000	1.968781
O	5.906343	1.968781	0.000000
Cr	3.937562	0.000000	3.937562
Mo	5.906343	1.968781	5.906343
O	3.937562	1.968781	5.906343
O	5.906343	0.000000	5.906343
O	5.906343	1.968781	3.937562
Cr	3.937562	3.937562	0.000000
Mo	5.906343	5.906343	1.968781
O	3.937562	5.906343	1.968781
O	5.906343	3.937562	1.968781
O	5.906343	5.906343	0.000000
Cr	3.937562	3.937562	3.937562
Mo	5.906343	5.906343	5.906343
O	3.937562	5.906343	5.906343
O	5.906343	3.937562	5.906343
O	5.906343	5.906343	3.937562
