112

Hg	0.000000	0.000000	0.000000
Hg	2.360830	-2.361571	-2.361571
O	-1.096147	1.095891	-3.627242
O	3.625513	-1.095891	-1.095891
O	1.096147	-1.095891	-3.627242
O	1.264683	1.265680	-1.265680
O	5.817797	1.095891	-1.095891
O	1.264683	3.457462	-3.457462
O	3.456967	1.265680	-3.457462
O	3.456967	3.457462	-1.265680
Yb	-1.180410	-1.180786	-3.542357
Yb	5.902070	-1.180786	-1.180786
Yb	3.541240	1.180786	-1.180786
Yb	1.180410	1.180786	-3.542357
Hg	4.721655	4.723137	0.000000
Hg	7.082485	2.361566	-2.361571
O	3.625508	5.819028	-3.627242
O	8.347168	3.627246	-1.095891
O	5.817801	3.627246	-3.627242
O	5.986338	5.988818	-1.265680
O	10.539452	5.819028	-1.095891
O	5.986338	8.180600	-3.457462
O	8.178621	5.988818	-3.457462
O	8.178621	8.180600	-1.265680
Yb	3.541245	3.542352	-3.542357
Yb	10.623725	3.542352	-1.180786
Yb	8.262895	5.903923	-1.180786
Yb	5.902065	5.903923	-3.542357
Hg	-4.721655	0.000000	-4.723137
Hg	-2.360825	-2.361571	-7.084709
O	-5.817801	1.095891	-8.350379
O	-1.096141	-1.095891	-5.819028
O	-3.625508	-1.095891	-8.350379
O	-3.456971	1.265680	-5.988818
O	1.096142	1.095891	-5.819028
O	-3.456971	3.457462	-8.180600
O	-1.264688	1.265680	-8.180600
O	-1.264688	3.457462	-5.988818
Yb	-5.902065	-1.180786	-8.265494
Yb	1.180416	-1.180786	-5.903923
Yb	-1.180415	1.180786	-5.903923
Yb	-3.541245	1.180786	-8.265494
Hg	0.000000	4.723137	-4.723137
Hg	2.360830	2.361566	-7.084709
O	-1.096147	5.819028	-8.350379
O	3.625513	3.627246	-5.819028
O	1.096147	3.627246	-8.350379
O	1.264683	5.988818	-5.988818
O	5.817797	5.819028	-5.819028
O	1.264683	8.180600	-8.180600
O	3.456967	5.988818	-8.180600
O	3.456967	8.180600	-5.988818
Yb	-1.180410	3.542352	-8.265494
Yb	5.902070	3.542352	-5.903923
Yb	3.541240	5.903923	-5.903923
Yb	1.180410	5.903923	-8.265494
Hg	4.721655	-4.723137	0.000000
Hg	7.082485	-7.084709	-2.361571
O	3.625508	-3.627246	-3.627242
O	8.347168	-5.819028	-1.095891
O	5.817801	-5.819028	-3.627242
O	5.986338	-3.457457	-1.265680
O	10.539452	-3.627246	-1.095891
O	5.986338	-1.265675	-3.457462
O	8.178621	-3.457457	-3.457462
O	8.178621	-1.265675	-1.265680
Yb	3.541245	-5.903923	-3.542357
Yb	10.623725	-5.903923	-1.180786
Yb	8.262895	-3.542352	-1.180786
Yb	5.902065	-3.542352	-3.542357
Hg	9.443309	0.000000	0.000000
Hg	11.804139	-2.361571	-2.361571
O	8.347163	1.095891	-3.627242
O	13.068823	-1.095891	-1.095891
O	10.539456	-1.095891	-3.627242
O	10.707993	1.265680	-1.265680
O	15.261106	1.095891	-1.095891
O	10.707993	3.457462	-3.457462
O	12.900276	1.265680	-3.457462
O	12.900276	3.457462	-1.265680
Yb	8.262899	-1.180786	-3.542357
Yb	15.345379	-1.180786	-1.180786
Yb	12.984549	1.180786	-1.180786
Yb	10.623719	1.180786	-3.542357
Hg	0.000000	-4.723137	-4.723137
Hg	2.360830	-7.084709	-7.084709
O	-1.096147	-3.627246	-8.350379
O	3.625513	-5.819028	-5.819028
O	1.096147	-5.819028	-8.350379
O	1.264683	-3.457457	-5.988818
O	5.817797	-3.627246	-5.819028
O	1.264683	-1.265675	-8.180600
O	3.456967	-3.457457	-8.180600
O	3.456967	-1.265675	-5.988818
Yb	-1.180410	-5.903923	-8.265494
Yb	5.902070	-5.903923	-5.903923
Yb	3.541240	-3.542352	-5.903923
Yb	1.180410	-3.542352	-8.265494
Hg	4.721655	0.000000	-4.723137
Hg	7.082485	-2.361571	-7.084709
O	3.625508	1.095891	-8.350379
O	8.347168	-1.095891	-5.819028
O	5.817801	-1.095891	-8.350379
O	5.986338	1.265680	-5.988818
O	10.539452	1.095891	-5.819028
O	5.986338	3.457462	-8.180600
O	8.178621	1.265680	-8.180600
O	8.178621	3.457462	-5.988818
Yb	3.541245	-1.180786	-8.265494
Yb	10.623725	-1.180786	-5.903923
Yb	8.262895	1.180786	-5.903923
Yb	5.902065	1.180786	-8.265494
