112

Au	0.000000	0.000000	0.000000
Au	2.431566	-2.441040	-2.441040
O	3.797894	-1.062527	-1.062527
O	-1.065239	1.062527	-3.819554
O	1.065239	-1.062527	-3.819554
O	1.366327	1.378514	-1.378514
O	5.928371	1.062527	-1.062527
O	1.366327	3.503567	-3.503567
O	3.496805	3.503567	-1.378514
O	3.496805	1.378514	-3.503567
Pu	-1.215783	-1.220520	-3.661560
Pu	3.647349	1.220520	-1.220520
Pu	6.078916	-1.220520	-1.220520
Pu	1.215783	1.220520	-3.661560
Au	4.863132	4.882081	0.000000
Au	7.294699	2.441040	-2.441040
O	8.661026	3.819554	-1.062527
O	3.797894	5.944607	-3.819554
O	5.928371	3.819554	-3.819554
O	6.229460	6.260594	-1.378514
O	10.791504	5.944607	-1.062527
O	6.229460	8.385648	-3.503567
O	8.359938	8.385648	-1.378514
O	8.359938	6.260594	-3.503567
Pu	3.647349	3.661560	-3.661560
Pu	8.510482	6.102601	-1.220520
Pu	10.942048	3.661560	-1.220520
Pu	6.078916	6.102601	-3.661560
Au	-4.863132	0.000000	-4.882081
Au	-2.431566	-2.441040	-7.323121
O	-1.065239	-1.062527	-5.944607
O	-5.928371	1.062527	-8.701635
O	-3.797894	-1.062527	-8.701635
O	-3.496805	1.378514	-6.260594
O	1.065239	1.062527	-5.944607
O	-3.496805	3.503567	-8.385648
O	-1.366327	3.503567	-6.260594
O	-1.366327	1.378514	-8.385648
Pu	-6.078916	-1.220520	-8.543641
Pu	-1.215783	1.220520	-6.102601
Pu	1.215783	-1.220520	-6.102601
Pu	-3.647349	1.220520	-8.543641
Au	0.000000	4.882081	-4.882081
Au	2.431566	2.441040	-7.323121
O	3.797894	3.819554	-5.944607
O	-1.065239	5.944607	-8.701635
O	1.065239	3.819554	-8.701635
O	1.366327	6.260594	-6.260594
O	5.928371	5.944607	-5.944607
O	1.366327	8.385648	-8.385648
O	3.496805	8.385648	-6.260594
O	3.496805	6.260594	-8.385648
Pu	-1.215783	3.661560	-8.543641
Pu	3.647349	6.102601	-6.102601
Pu	6.078916	3.661560	-6.102601
Pu	1.215783	6.102601	-8.543641
Au	4.863132	-4.882081	0.000000
Au	7.294699	-7.323121	-2.441040
O	8.661026	-5.944607	-1.062527
O	3.797894	-3.819554	-3.819554
O	5.928371	-5.944607	-3.819554
O	6.229460	-3.503567	-1.378514
O	10.791504	-3.819554	-1.062527
O	6.229460	-1.378514	-3.503567
O	8.359938	-1.378514	-1.378514
O	8.359938	-3.503567	-3.503567
Pu	3.647349	-6.102601	-3.661560
Pu	8.510482	-3.661560	-1.220520
Pu	10.942048	-6.102601	-1.220520
Pu	6.078916	-3.661560	-3.661560
Au	9.726265	0.000000	0.000000
Au	12.157831	-2.441040	-2.441040
O	13.524159	-1.062527	-1.062527
O	8.661026	1.062527	-3.819554
O	10.791504	-1.062527	-3.819554
O	11.092592	1.378514	-1.378514
O	15.654636	1.062527	-1.062527
O	11.092592	3.503567	-3.503567
O	13.223070	3.503567	-1.378514
O	13.223070	1.378514	-3.503567
Pu	8.510482	-1.220520	-3.661560
Pu	13.373614	1.220520	-1.220520
Pu	15.805181	-1.220520	-1.220520
Pu	10.942048	1.220520	-3.661560
Au	0.000000	-4.882081	-4.882081
Au	2.431566	-7.323121	-7.323121
O	3.797894	-5.944607	-5.944607
O	-1.065239	-3.819554	-8.701635
O	1.065239	-5.944607	-8.701635
O	1.366327	-3.503567	-6.260594
O	5.928371	-3.819554	-5.944607
O	1.366327	-1.378514	-8.385648
O	3.496805	-1.378514	-6.260594
O	3.496805	-3.503567	-8.385648
Pu	-1.215783	-6.102601	-8.543641
Pu	3.647349	-3.661560	-6.102601
Pu	6.078916	-6.102601	-6.102601
Pu	1.215783	-3.661560	-8.543641
Au	4.863132	0.000000	-4.882081
Au	7.294699	-2.441040	-7.323121
O	8.661026	-1.062527	-5.944607
O	3.797894	1.062527	-8.701635
O	5.928371	-1.062527	-8.701635
O	6.229460	1.378514	-6.260594
O	10.791504	1.062527	-5.944607
O	6.229460	3.503567	-8.385648
O	8.359938	3.503567	-6.260594
O	8.359938	1.378514	-8.385648
Pu	3.647349	-1.220520	-8.543641
Pu	8.510482	1.220520	-6.102601
Pu	10.942048	-1.220520	-6.102601
Pu	6.078916	1.220520	-8.543641
