40

As	2.038704	2.038704	2.038704
Cs	0.000000	0.000000	0.000000
O	0.000000	2.038704	2.038704
O	2.038704	0.000000	2.038704
O	2.038704	2.038704	0.000000
As	2.038704	2.038704	6.116112
Cs	0.000000	0.000000	4.077408
O	0.000000	2.038704	6.116112
O	2.038704	0.000000	6.116112
O	2.038704	2.038704	4.077408
As	2.038704	6.116112	2.038704
Cs	0.000000	4.077408	0.000000
O	0.000000	6.116112	2.038704
O	2.038704	4.077408	2.038704
O	2.038704	6.116112	0.000000
As	2.038704	6.116112	6.116112
Cs	0.000000	4.077408	4.077408
O	0.000000	6.116112	6.116112
O	2.038704	4.077408	6.116112
O	2.038704	6.116112	4.077408
As	6.116112	2.038704	2.038704
Cs	4.077408	0.000000	0.000000
O	4.077408	2.038704	2.038704
O	6.116112	0.000000	2.038704
O	6.116112	2.038704	0.000000
As	6.116112	2.038704	6.116112
Cs	4.077408	0.000000	4.077408
O	4.077408	2.038704	6.116112
O	6.116112	0.000000	6.116112
O	6.116112	2.038704	4.077408
As	6.116112	6.116112	2.038704
Cs	4.077408	4.077408	0.000000
O	4.077408	6.116112	2.038704
O	6.116112	4.077408	2.038704
O	6.116112	6.116112	0.000000
As	6.116112	6.116112	6.116112
Cs	4.077408	4.077408	4.077408
O	4.077408	6.116112	6.116112
O	6.116112	4.077408	6.116112
O	6.116112	6.116112	4.077408
