40

As	0.000000	0.000000	0.000000
Cs	2.250266	2.250266	2.250266
O	2.250266	2.250266	0.000000
O	2.250266	0.000000	2.250266
O	0.000000	2.250266	2.250266
As	0.000000	0.000000	4.500532
Cs	2.250266	2.250266	6.750798
O	2.250266	2.250266	4.500532
O	2.250266	0.000000	6.750798
O	0.000000	2.250266	6.750798
As	0.000000	4.500532	0.000000
Cs	2.250266	6.750798	2.250266
O	2.250266	6.750798	0.000000
O	2.250266	4.500532	2.250266
O	0.000000	6.750798	2.250266
As	0.000000	4.500532	4.500532
Cs	2.250266	6.750798	6.750798
O	2.250266	6.750798	4.500532
O	2.250266	4.500532	6.750798
O	0.000000	6.750798	6.750798
As	4.500532	0.000000	0.000000
Cs	6.750798	2.250266	2.250266
O	6.750798	2.250266	0.000000
O	6.750798	0.000000	2.250266
O	4.500532	2.250266	2.250266
As	4.500532	0.000000	4.500532
Cs	6.750798	2.250266	6.750798
O	6.750798	2.250266	4.500532
O	6.750798	0.000000	6.750798
O	4.500532	2.250266	6.750798
As	4.500532	4.500532	0.000000
Cs	6.750798	6.750798	2.250266
O	6.750798	6.750798	0.000000
O	6.750798	4.500532	2.250266
O	4.500532	6.750798	2.250266
As	4.500532	4.500532	4.500532
Cs	6.750798	6.750798	6.750798
O	6.750798	6.750798	4.500532
O	6.750798	4.500532	6.750798
O	4.500532	6.750798	6.750798
