40

Cr	0.000000	0.000000	0.000000
Mg	1.931401	1.931401	1.931401
O	0.000000	1.931401	1.931401
O	1.931401	0.000000	1.931401
O	1.931401	1.931401	0.000000
Cr	0.000000	0.000000	3.862802
Mg	1.931401	1.931401	5.794203
O	0.000000	1.931401	5.794203
O	1.931401	0.000000	5.794203
O	1.931401	1.931401	3.862802
Cr	0.000000	3.862802	0.000000
Mg	1.931401	5.794203	1.931401
O	0.000000	5.794203	1.931401
O	1.931401	3.862802	1.931401
O	1.931401	5.794203	0.000000
Cr	0.000000	3.862802	3.862802
Mg	1.931401	5.794203	5.794203
O	0.000000	5.794203	5.794203
O	1.931401	3.862802	5.794203
O	1.931401	5.794203	3.862802
Cr	3.862802	0.000000	0.000000
Mg	5.794203	1.931401	1.931401
O	3.862802	1.931401	1.931401
O	5.794203	0.000000	1.931401
O	5.794203	1.931401	0.000000
Cr	3.862802	0.000000	3.862802
Mg	5.794203	1.931401	5.794203
O	3.862802	1.931401	5.794203
O	5.794203	0.000000	5.794203
O	5.794203	1.931401	3.862802
Cr	3.862802	3.862802	0.000000
Mg	5.794203	5.794203	1.931401
O	3.862802	5.794203	1.931401
O	5.794203	3.862802	1.931401
O	5.794203	5.794203	0.000000
Cr	3.862802	3.862802	3.862802
Mg	5.794203	5.794203	5.794203
O	3.862802	5.794203	5.794203
O	5.794203	3.862802	5.794203
O	5.794203	5.794203	3.862802
