40

O	2.575423	2.575423	2.575423
Sn	0.000000	0.000000	0.000000
Sr	2.575423	2.575423	0.000000
Sr	2.575423	0.000000	2.575423
Sr	0.000000	2.575423	2.575423
O	2.575423	2.575423	7.726270
Sn	0.000000	0.000000	5.150847
Sr	2.575423	2.575423	5.150847
Sr	2.575423	0.000000	7.726270
Sr	0.000000	2.575423	7.726270
O	2.575423	7.726270	2.575423
Sn	0.000000	5.150847	0.000000
Sr	2.575423	7.726270	0.000000
Sr	2.575423	5.150847	2.575423
Sr	0.000000	7.726270	2.575423
O	2.575423	7.726270	7.726270
Sn	0.000000	5.150847	5.150847
Sr	2.575423	7.726270	5.150847
Sr	2.575423	5.150847	7.726270
Sr	0.000000	7.726270	7.726270
O	7.726270	2.575423	2.575423
Sn	5.150847	0.000000	0.000000
Sr	7.726270	2.575423	0.000000
Sr	7.726270	0.000000	2.575423
Sr	5.150847	2.575423	2.575423
O	7.726270	2.575423	7.726270
Sn	5.150847	0.000000	5.150847
Sr	7.726270	2.575423	5.150847
Sr	7.726270	0.000000	7.726270
Sr	5.150847	2.575423	7.726270
O	7.726270	7.726270	2.575423
Sn	5.150847	5.150847	0.000000
Sr	7.726270	7.726270	0.000000
Sr	7.726270	5.150847	2.575423
Sr	5.150847	7.726270	2.575423
O	7.726270	7.726270	7.726270
Sn	5.150847	5.150847	5.150847
Sr	7.726270	7.726270	5.150847
Sr	7.726270	5.150847	7.726270
Sr	5.150847	7.726270	7.726270
