40

K	2.180029	2.180029	2.180029
O	2.180029	2.180029	0.000000
O	2.180029	0.000000	2.180029
O	0.000000	2.180029	2.180029
Sr	0.000000	0.000000	0.000000
K	2.180029	2.180029	6.540078
O	2.180029	2.180029	4.360049
O	2.180029	0.000000	6.540078
O	0.000000	2.180029	6.540078
Sr	0.000000	0.000000	4.360049
K	2.180029	6.540078	2.180029
O	2.180029	6.540078	0.000000
O	2.180029	4.360049	2.180029
O	0.000000	6.540078	2.180029
Sr	0.000000	4.360049	0.000000
K	2.180029	6.540078	6.540078
O	2.180029	6.540078	4.360049
O	2.180029	4.360049	6.540078
O	0.000000	6.540078	6.540078
Sr	0.000000	4.360049	4.360049
K	6.540078	2.180029	2.180029
O	6.540078	2.180029	0.000000
O	6.540078	0.000000	2.180029
O	4.360049	2.180029	2.180029
Sr	4.360049	0.000000	0.000000
K	6.540078	2.180029	6.540078
O	6.540078	2.180029	4.360049
O	6.540078	0.000000	6.540078
O	4.360049	2.180029	6.540078
Sr	4.360049	0.000000	4.360049
K	6.540078	6.540078	2.180029
O	6.540078	6.540078	0.000000
O	6.540078	4.360049	2.180029
O	4.360049	6.540078	2.180029
Sr	4.360049	4.360049	0.000000
K	6.540078	6.540078	6.540078
O	6.540078	6.540078	4.360049
O	6.540078	4.360049	6.540078
O	4.360049	6.540078	6.540078
Sr	4.360049	4.360049	4.360049
