112

Au	0.000000	0.000000	0.000000
Au	2.518418	-2.519687	-2.519687
Ce	-1.259209	-1.259844	-3.779531
Ce	3.777627	1.259844	-1.259844
Ce	6.296045	-1.259844	-1.259844
Ce	1.259209	1.259844	-3.779531
O	3.881609	-1.155328	-1.155328
O	-1.155227	1.155328	-3.884047
O	1.155227	-1.155328	-3.884047
O	1.363191	1.364359	-1.364359
O	6.192063	1.155328	-1.155328
O	1.363191	3.675015	-3.675015
O	3.673645	3.675015	-1.364359
O	3.673645	1.364359	-3.675015
Au	5.036836	5.039375	0.000000
Au	7.555254	2.519687	-2.519687
Ce	3.777627	3.779531	-3.779531
Ce	8.814463	6.299219	-1.259844
Ce	11.332881	3.779531	-1.259844
Ce	6.296045	6.299219	-3.779531
O	8.918445	3.884047	-1.155328
O	3.881609	6.194703	-3.884047
O	6.192063	3.884047	-3.884047
O	6.400027	6.403734	-1.364359
O	11.228899	6.194703	-1.155328
O	6.400027	8.714390	-3.675015
O	8.710481	8.714390	-1.364359
O	8.710481	6.403734	-3.675015
Au	-5.036836	0.000000	-5.039375
Au	-2.518418	-2.519687	-7.559062
Ce	-6.296045	-1.259844	-8.818906
Ce	-1.259209	1.259844	-6.299219
Ce	1.259209	-1.259844	-6.299219
Ce	-3.777627	1.259844	-8.818906
O	-1.155227	-1.155328	-6.194703
O	-6.192063	1.155328	-8.923422
O	-3.881609	-1.155328	-8.923422
O	-3.673645	1.364359	-6.403734
O	1.155227	1.155328	-6.194703
O	-3.673645	3.675015	-8.714390
O	-1.363191	3.675015	-6.403734
O	-1.363191	1.364359	-8.714390
Au	0.000000	5.039375	-5.039375
Au	2.518418	2.519687	-7.559062
Ce	-1.259209	3.779531	-8.818906
Ce	3.777627	6.299219	-6.299219
Ce	6.296045	3.779531	-6.299219
Ce	1.259209	6.299219	-8.818906
O	3.881609	3.884047	-6.194703
O	-1.155227	6.194703	-8.923422
O	1.155227	3.884047	-8.923422
O	1.363191	6.403734	-6.403734
O	6.192063	6.194703	-6.194703
O	1.363191	8.714390	-8.714390
O	3.673645	8.714390	-6.403734
O	3.673645	6.403734	-8.714390
Au	5.036836	-5.039375	0.000000
Au	7.555254	-7.559062	-2.519687
Ce	3.777627	-6.299219	-3.779531
Ce	8.814463	-3.779531	-1.259844
Ce	11.332881	-6.299219	-1.259844
Ce	6.296045	-3.779531	-3.779531
O	8.918445	-6.194703	-1.155328
O	3.881609	-3.884047	-3.884047
O	6.192063	-6.194703	-3.884047
O	6.400027	-3.675015	-1.364359
O	11.228899	-3.884047	-1.155328
O	6.400027	-1.364359	-3.675015
O	8.710481	-1.364359	-1.364359
O	8.710481	-3.675015	-3.675015
Au	10.073672	0.000000	0.000000
Au	12.592090	-2.519687	-2.519687
Ce	8.814463	-1.259844	-3.779531
Ce	13.851299	1.259844	-1.259844
Ce	16.369717	-1.259844	-1.259844
Ce	11.332881	1.259844	-3.779531
O	13.955282	-1.155328	-1.155328
O	8.918446	1.155328	-3.884047
O	11.228899	-1.155328	-3.884047
O	11.436864	1.364359	-1.364359
O	16.265735	1.155328	-1.155328
O	11.436864	3.675015	-3.675015
O	13.747317	3.675015	-1.364359
O	13.747317	1.364359	-3.675015
Au	0.000000	-5.039375	-5.039375
Au	2.518418	-7.559062	-7.559062
Ce	-1.259209	-6.299219	-8.818906
Ce	3.777627	-3.779531	-6.299219
Ce	6.296045	-6.299219	-6.299219
Ce	1.259209	-3.779531	-8.818906
O	3.881609	-6.194703	-6.194703
O	-1.155227	-3.884047	-8.923422
O	1.155227	-6.194703	-8.923422
O	1.363191	-3.675015	-6.403734
O	6.192063	-3.884047	-6.194703
O	1.363191	-1.364359	-8.714390
O	3.673645	-1.364359	-6.403734
O	3.673645	-3.675015	-8.714390
Au	5.036836	0.000000	-5.039375
Au	7.555254	-2.519687	-7.559062
Ce	3.777627	-1.259844	-8.818906
Ce	8.814463	1.259844	-6.299219
Ce	11.332881	-1.259844	-6.299219
Ce	6.296045	1.259844	-8.818906
O	8.918445	-1.155328	-6.194703
O	3.881609	1.155328	-8.923422
O	6.192063	-1.155328	-8.923422
O	6.400027	1.364359	-6.403734
O	11.228899	1.155328	-6.194703
O	6.400027	3.675015	-8.714390
O	8.710481	3.675015	-6.403734
O	8.710481	1.364359	-8.714390
