40

Sr	1.993637	1.993637	1.993637
Ru	0.000000	0.000000	0.000000
O	1.993637	0.000000	0.000000
O	0.000000	0.000000	1.993637
O	0.000000	1.993637	0.000000
Sr	1.993637	1.993637	5.980912
Ru	0.000000	0.000000	3.987275
O	1.993637	0.000000	3.987275
O	0.000000	0.000000	5.980912
O	0.000000	1.993637	3.987275
Sr	1.993637	5.980912	1.993637
Ru	0.000000	3.987275	0.000000
O	1.993637	3.987275	0.000000
O	0.000000	3.987275	1.993637
O	0.000000	5.980912	0.000000
Sr	1.993637	5.980912	5.980912
Ru	0.000000	3.987275	3.987275
O	1.993637	3.987275	3.987275
O	0.000000	3.987275	5.980912
O	0.000000	5.980912	3.987275
Sr	5.980912	1.993637	1.993637
Ru	3.987275	0.000000	0.000000
O	5.980912	0.000000	0.000000
O	3.987275	0.000000	1.993637
O	3.987275	1.993637	0.000000
Sr	5.980912	1.993637	5.980912
Ru	3.987275	0.000000	3.987275
O	5.980912	0.000000	3.987275
O	3.987275	0.000000	5.980912
O	3.987275	1.993637	3.987275
Sr	5.980912	5.980912	1.993637
Ru	3.987275	3.987275	0.000000
O	5.980912	3.987275	0.000000
O	3.987275	3.987275	1.993637
O	3.987275	5.980912	0.000000
Sr	5.980912	5.980912	5.980912
Ru	3.987275	3.987275	3.987275
O	5.980912	3.987275	3.987275
O	3.987275	3.987275	5.980912
O	3.987275	5.980912	3.987275
