40

Dy	2.119747	2.119747	2.119747
O	2.119747	2.119747	0.000000
O	0.000000	2.119747	2.119747
O	2.119747	0.000000	2.119747
W	0.000000	0.000000	0.000000
Dy	2.119747	2.119747	6.359231
O	2.119747	2.119747	4.239485
O	0.000000	2.119747	6.359231
O	2.119747	0.000000	6.359231
W	0.000000	0.000000	4.239485
Dy	2.119747	6.359231	2.119747
O	2.119747	6.359231	0.000000
O	0.000000	6.359231	2.119747
O	2.119747	4.239485	2.119747
W	0.000000	4.239485	0.000000
Dy	2.119747	6.359231	6.359231
O	2.119747	6.359231	4.239485
O	0.000000	6.359231	6.359231
O	2.119747	4.239485	6.359231
W	0.000000	4.239485	4.239485
Dy	6.359231	2.119747	2.119747
O	6.359231	2.119747	0.000000
O	4.239485	2.119747	2.119747
O	6.359231	0.000000	2.119747
W	4.239485	0.000000	0.000000
Dy	6.359231	2.119747	6.359231
O	6.359231	2.119747	4.239485
O	4.239485	2.119747	6.359231
O	6.359231	0.000000	6.359231
W	4.239485	0.000000	4.239485
Dy	6.359231	6.359231	2.119747
O	6.359231	6.359231	0.000000
O	4.239485	6.359231	2.119747
O	6.359231	4.239485	2.119747
W	4.239485	4.239485	0.000000
Dy	6.359231	6.359231	6.359231
O	6.359231	6.359231	4.239485
O	4.239485	6.359231	6.359231
O	6.359231	4.239485	6.359231
W	4.239485	4.239485	4.239485
