112

O	1.176662	1.196518	-1.196518
O	3.852150	-1.492348	-1.492348
O	-1.498827	1.492348	-3.885395
O	1.498827	-1.492348	-3.885395
O	1.176662	4.181215	-4.181215
O	4.174326	1.196518	-4.181215
O	4.174326	4.181215	-1.196518
O	6.849814	1.492348	-1.492348
Pa	0.000000	0.000000	0.000000
Pa	2.675489	-2.688867	-2.688867
Rb	-1.337749	-1.344443	-4.033310
Rb	6.688727	-1.344443	-1.344443
Rb	1.337749	1.344443	-4.033310
Rb	4.013238	1.344443	-1.344443
O	6.527639	6.574260	-1.196518
O	9.203128	3.885393	-1.492348
O	3.852151	6.870090	-3.885395
O	6.849805	3.885393	-3.885395
O	6.527639	9.558957	-4.181215
O	9.525303	6.574260	-4.181215
O	9.525303	9.558957	-1.196518
O	12.200792	6.870090	-1.492348
Pa	5.350978	5.377742	0.000000
Pa	8.026466	2.688875	-2.688867
Rb	4.013228	4.033298	-4.033310
Rb	12.039704	4.033298	-1.344443
Rb	6.688727	6.722185	-4.033310
Rb	9.364216	6.722185	-1.344443
O	-4.174316	1.196518	-6.574260
O	-1.498827	-1.492348	-6.870090
O	-6.849805	1.492348	-9.263137
O	-3.852151	-1.492348	-9.263137
O	-4.174316	4.181215	-9.558957
O	-1.176652	1.196518	-9.558957
O	-1.176652	4.181215	-6.574260
O	1.498836	1.492348	-6.870090
Pa	-5.350978	0.000000	-5.377742
Pa	-2.675489	-2.688867	-8.066608
Rb	-6.688727	-1.344443	-9.411052
Rb	1.337749	-1.344443	-6.722185
Rb	-4.013228	1.344443	-9.411052
Rb	-1.337740	1.344443	-6.722185
O	1.176662	6.574260	-6.574260
O	3.852150	3.885393	-6.870090
O	-1.498827	6.870090	-9.263137
O	1.498827	3.885393	-9.263137
O	1.176662	9.558957	-9.558957
O	4.174326	6.574260	-9.558957
O	4.174326	9.558957	-6.574260
O	6.849814	6.870090	-6.870090
Pa	0.000000	5.377742	-5.377742
Pa	2.675489	2.688875	-8.066608
Rb	-1.337749	4.033298	-9.411052
Rb	6.688727	4.033298	-6.722185
Rb	1.337749	6.722185	-9.411052
Rb	4.013238	6.722185	-6.722185
O	6.527639	-4.181223	-1.196518
O	9.203128	-6.870090	-1.492348
O	3.852151	-3.885393	-3.885395
O	6.849805	-6.870090	-3.885395
O	6.527639	-1.196526	-4.181215
O	9.525303	-4.181223	-4.181215
O	9.525303	-1.196526	-1.196518
O	12.200792	-3.885393	-1.492348
Pa	5.350978	-5.377742	0.000000
Pa	8.026466	-8.066608	-2.688867
Rb	4.013228	-6.722185	-4.033310
Rb	12.039704	-6.722185	-1.344443
Rb	6.688727	-4.033298	-4.033310
Rb	9.364216	-4.033298	-1.344443
O	11.878617	1.196518	-1.196518
O	14.554106	-1.492348	-1.492348
O	9.203129	1.492348	-3.885395
O	12.200782	-1.492348	-3.885395
O	11.878617	4.181215	-4.181215
O	14.876281	1.196518	-4.181215
O	14.876281	4.181215	-1.196518
O	17.551770	1.492348	-1.492348
Pa	10.701956	0.000000	0.000000
Pa	13.377444	-2.688867	-2.688867
Rb	9.364206	-1.344443	-4.033310
Rb	17.390682	-1.344443	-1.344443
Rb	12.039705	1.344443	-4.033310
Rb	14.715193	1.344443	-1.344443
O	1.176662	-4.181223	-6.574260
O	3.852150	-6.870090	-6.870090
O	-1.498827	-3.885393	-9.263137
O	1.498827	-6.870090	-9.263137
O	1.176662	-1.196526	-9.558957
O	4.174326	-4.181223	-9.558957
O	4.174326	-1.196526	-6.574260
O	6.849814	-3.885393	-6.870090
Pa	0.000000	-5.377742	-5.377742
Pa	2.675489	-8.066608	-8.066608
Rb	-1.337749	-6.722185	-9.411052
Rb	6.688727	-6.722185	-6.722185
Rb	1.337749	-4.033298	-9.411052
Rb	4.013238	-4.033298	-6.722185
O	6.527639	1.196518	-6.574260
O	9.203128	-1.492348	-6.870090
O	3.852151	1.492348	-9.263137
O	6.849805	-1.492348	-9.263137
O	6.527639	4.181215	-9.558957
O	9.525303	1.196518	-9.558957
O	9.525303	4.181215	-6.574260
O	12.200792	1.492348	-6.870090
Pa	5.350978	0.000000	-5.377742
Pa	8.026466	-2.688867	-8.066608
Rb	4.013228	-1.344443	-9.411052
Rb	12.039704	-1.344443	-6.722185
Rb	6.688727	1.344443	-9.411052
Rb	9.364216	1.344443	-6.722185
