40

Be	0.000000	0.000000	0.000000
O	2.163520	0.000000	2.163520
O	0.000000	2.163520	2.163520
O	2.163520	2.163520	0.000000
Pa	2.163520	2.163520	2.163520
Be	0.000000	0.000000	4.327056
O	2.163520	0.000000	6.490576
O	0.000000	2.163520	6.490576
O	2.163520	2.163520	4.327056
Pa	2.163520	2.163520	6.490576
Be	0.000000	4.327056	0.000000
O	2.163520	4.327056	2.163520
O	0.000000	6.490576	2.163520
O	2.163520	6.490576	0.000000
Pa	2.163520	6.490576	2.163520
Be	0.000000	4.327056	4.327056
O	2.163520	4.327056	6.490576
O	0.000000	6.490576	6.490576
O	2.163520	6.490576	4.327056
Pa	2.163520	6.490576	6.490576
Be	4.327056	0.000000	0.000000
O	6.490576	0.000000	2.163520
O	4.327056	2.163520	2.163520
O	6.490576	2.163520	0.000000
Pa	6.490576	2.163520	2.163520
Be	4.327056	0.000000	4.327056
O	6.490576	0.000000	6.490576
O	4.327056	2.163520	6.490576
O	6.490576	2.163520	4.327056
Pa	6.490576	2.163520	6.490576
Be	4.327056	4.327056	0.000000
O	6.490576	4.327056	2.163520
O	4.327056	6.490576	2.163520
O	6.490576	6.490576	0.000000
Pa	6.490576	6.490576	2.163520
Be	4.327056	4.327056	4.327056
O	6.490576	4.327056	6.490576
O	4.327056	6.490576	6.490576
O	6.490576	6.490576	4.327056
Pa	6.490576	6.490576	6.490576
