112

O	3.789915	-1.020404	-1.020404
O	-1.020785	1.020404	-3.791682
O	1.020785	-1.020404	-3.791682
O	1.384565	1.385639	-1.385639
O	5.831485	1.020404	-1.020404
O	1.384565	3.426448	-3.426448
O	3.426135	3.426448	-1.385639
O	3.426135	1.385639	-3.426448
Te	0.000000	0.000000	0.000000
Te	2.405350	-2.406043	-2.406043
Tm	-1.202675	-1.203017	-3.609060
Tm	3.608025	1.203017	-1.203017
Tm	1.202675	1.203017	-3.609060
Tm	6.013375	-1.203017	-1.203017
O	8.600617	3.791679	-1.020404
O	3.789917	5.832488	-3.791682
O	5.831488	3.791679	-3.791682
O	6.195267	6.197722	-1.385639
O	10.642188	5.832488	-1.020404
O	6.195267	8.238531	-3.426448
O	8.236838	8.238531	-1.385639
O	8.236838	6.197722	-3.426448
Te	4.810702	4.812084	0.000000
Te	7.216052	2.406040	-2.406043
Tm	3.608027	3.609067	-3.609060
Tm	8.418727	6.015100	-1.203017
Tm	6.013377	6.015100	-3.609060
Tm	10.824078	3.609067	-1.203017
O	-1.020787	-1.020404	-5.832488
O	-5.831488	1.020404	-8.603766
O	-3.789917	-1.020404	-8.603766
O	-3.426138	1.385639	-6.197722
O	1.020783	1.020404	-5.832488
O	-3.426138	3.426448	-8.238531
O	-1.384567	3.426448	-6.197722
O	-1.384567	1.385639	-8.238531
Te	-4.810702	0.000000	-4.812084
Te	-2.405352	-2.406043	-7.218127
Tm	-6.013377	-1.203017	-8.421144
Tm	-1.202677	1.203017	-6.015100
Tm	-3.608027	1.203017	-8.421144
Tm	1.202673	-1.203017	-6.015100
O	3.789915	3.791679	-5.832488
O	-1.020785	5.832488	-8.603766
O	1.020785	3.791679	-8.603766
O	1.384565	6.197722	-6.197722
O	5.831485	5.832488	-5.832488
O	1.384565	8.238531	-8.238531
O	3.426135	8.238531	-6.197722
O	3.426135	6.197722	-8.238531
Te	0.000000	4.812084	-4.812084
Te	2.405350	2.406040	-7.218127
Tm	-1.202675	3.609067	-8.421144
Tm	3.608025	6.015100	-6.015100
Tm	1.202675	6.015100	-8.421144
Tm	6.013375	3.609067	-6.015100
O	8.600617	-5.832488	-1.020404
O	3.789917	-3.791679	-3.791682
O	5.831488	-5.832488	-3.791682
O	6.195267	-3.426445	-1.385639
O	10.642188	-3.791679	-1.020404
O	6.195267	-1.385636	-3.426448
O	8.236838	-1.385636	-1.385639
O	8.236838	-3.426445	-3.426448
Te	4.810702	-4.812084	0.000000
Te	7.216052	-7.218127	-2.406043
Tm	3.608027	-6.015100	-3.609060
Tm	8.418727	-3.609067	-1.203017
Tm	6.013377	-3.609067	-3.609060
Tm	10.824078	-6.015100	-1.203017
O	13.411320	-1.020404	-1.020404
O	8.600619	1.020404	-3.791682
O	10.642190	-1.020404	-3.791682
O	11.005969	1.385639	-1.385639
O	15.452890	1.020404	-1.020404
O	11.005969	3.426448	-3.426448
O	13.047540	3.426448	-1.385639
O	13.047540	1.385639	-3.426448
Te	9.621405	0.000000	0.000000
Te	12.026755	-2.406043	-2.406043
Tm	8.418730	-1.203017	-3.609060
Tm	13.229430	1.203017	-1.203017
Tm	10.824080	1.203017	-3.609060
Tm	15.634780	-1.203017	-1.203017
O	3.789915	-5.832488	-5.832488
O	-1.020785	-3.791679	-8.603766
O	1.020785	-5.832488	-8.603766
O	1.384565	-3.426445	-6.197722
O	5.831485	-3.791679	-5.832488
O	1.384565	-1.385636	-8.238531
O	3.426135	-1.385636	-6.197722
O	3.426135	-3.426445	-8.238531
Te	0.000000	-4.812084	-4.812084
Te	2.405350	-7.218127	-7.218127
Tm	-1.202675	-6.015100	-8.421144
Tm	3.608025	-3.609067	-6.015100
Tm	1.202675	-3.609067	-8.421144
Tm	6.013375	-6.015100	-6.015100
O	8.600617	-1.020404	-5.832488
O	3.789917	1.020404	-8.603766
O	5.831488	-1.020404	-8.603766
O	6.195267	1.385639	-6.197722
O	10.642188	1.020404	-5.832488
O	6.195267	3.426448	-8.238531
O	8.236838	3.426448	-6.197722
O	8.236838	1.385639	-8.238531
Te	4.810702	0.000000	-4.812084
Te	7.216052	-2.406043	-7.218127
Tm	3.608027	-1.203017	-8.421144
Tm	8.418727	1.203017	-6.015100
Tm	6.013377	1.203017	-8.421144
Tm	10.824078	-1.203017	-6.015100
