40

In	2.039400	2.039400	2.039400
O	2.039400	2.039400	0.000000
O	0.000000	2.039400	2.039400
O	2.039400	0.000000	2.039400
Tm	0.000000	0.000000	0.000000
In	2.039400	2.039400	6.118187
O	2.039400	2.039400	4.078787
O	0.000000	2.039400	6.118187
O	2.039400	0.000000	6.118187
Tm	0.000000	0.000000	4.078787
In	2.039400	6.118187	2.039400
O	2.039400	6.118187	0.000000
O	0.000000	6.118187	2.039400
O	2.039400	4.078787	2.039400
Tm	0.000000	4.078787	0.000000
In	2.039400	6.118187	6.118187
O	2.039400	6.118187	4.078787
O	0.000000	6.118187	6.118187
O	2.039400	4.078787	6.118187
Tm	0.000000	4.078787	4.078787
In	6.118187	2.039400	2.039400
O	6.118187	2.039400	0.000000
O	4.078787	2.039400	2.039400
O	6.118187	0.000000	2.039400
Tm	4.078787	0.000000	0.000000
In	6.118187	2.039400	6.118187
O	6.118187	2.039400	4.078787
O	4.078787	2.039400	6.118187
O	6.118187	0.000000	6.118187
Tm	4.078787	0.000000	4.078787
In	6.118187	6.118187	2.039400
O	6.118187	6.118187	0.000000
O	4.078787	6.118187	2.039400
O	6.118187	4.078787	2.039400
Tm	4.078787	4.078787	0.000000
In	6.118187	6.118187	6.118187
O	6.118187	6.118187	4.078787
O	4.078787	6.118187	6.118187
O	6.118187	4.078787	6.118187
Tm	4.078787	4.078787	4.078787
