112

O	4.094080	-1.024252	-1.024252
O	-1.070413	1.024252	-4.155889
O	1.070413	-1.024252	-4.155889
O	1.511829	1.565823	-1.565823
O	6.234917	1.024252	-1.024252
O	1.511829	3.614318	-3.614318
O	3.652665	3.614318	-1.565823
O	3.652665	1.565823	-3.614318
Rb	0.000000	0.000000	0.000000
Rb	2.582252	-2.590066	-2.590066
U	-1.291121	-1.295033	-3.885099
U	1.291121	1.295033	-3.885099
U	3.873373	1.295033	-1.295033
U	6.455625	-1.295033	-1.295033
O	9.258581	4.155884	-1.024252
O	4.094087	6.204389	-4.155889
O	6.234914	4.155884	-4.155889
O	6.676329	6.745960	-1.565823
O	11.399417	6.204389	-1.024252
O	6.676329	8.794455	-3.614318
O	8.817166	8.794455	-1.565823
O	8.817166	6.745960	-3.614318
Rb	5.164500	5.180137	0.000000
Rb	7.746752	2.590071	-2.590066
U	3.873379	3.885104	-3.885099
U	6.455621	6.475170	-3.885099
U	9.037873	6.475170	-1.295033
U	11.620125	3.885104	-1.295033
O	-1.070420	-1.024252	-6.204389
O	-6.234914	1.024252	-9.336026
O	-4.094087	-1.024252	-9.336026
O	-3.652672	1.565823	-6.745960
O	1.070417	1.024252	-6.204389
O	-3.652672	3.614318	-8.794455
O	-1.511835	3.614318	-6.745960
O	-1.511835	1.565823	-8.794455
Rb	-5.164500	0.000000	-5.180137
Rb	-2.582248	-2.590066	-7.770202
U	-6.455621	-1.295033	-9.065235
U	-3.873379	1.295033	-9.065235
U	-1.291127	1.295033	-6.475170
U	1.291125	-1.295033	-6.475170
O	4.094080	4.155884	-6.204389
O	-1.070413	6.204389	-9.336026
O	1.070413	4.155884	-9.336026
O	1.511829	6.745960	-6.745960
O	6.234917	6.204389	-6.204389
O	1.511829	8.794455	-8.794455
O	3.652665	8.794455	-6.745960
O	3.652665	6.745960	-8.794455
Rb	0.000000	5.180137	-5.180137
Rb	2.582252	2.590071	-7.770202
U	-1.291121	3.885104	-9.065235
U	1.291121	6.475170	-9.065235
U	3.873373	6.475170	-6.475170
U	6.455625	3.885104	-6.475170
O	9.258581	-6.204389	-1.024252
O	4.094087	-4.155884	-4.155889
O	6.234914	-6.204389	-4.155889
O	6.676329	-3.614313	-1.565823
O	11.399417	-4.155884	-1.024252
O	6.676329	-1.565818	-3.614318
O	8.817166	-1.565818	-1.565823
O	8.817166	-3.614313	-3.614318
Rb	5.164500	-5.180137	0.000000
Rb	7.746752	-7.770202	-2.590066
U	3.873379	-6.475170	-3.885099
U	6.455621	-3.885104	-3.885099
U	9.037873	-3.885104	-1.295033
U	11.620125	-6.475170	-1.295033
O	14.423081	-1.024252	-1.024252
O	9.258587	1.024252	-4.155889
O	11.399414	-1.024252	-4.155889
O	11.840829	1.565823	-1.565823
O	16.563918	1.024252	-1.024252
O	11.840829	3.614318	-3.614318
O	13.981666	3.614318	-1.565823
O	13.981666	1.565823	-3.614318
Rb	10.329000	0.000000	0.000000
Rb	12.911252	-2.590066	-2.590066
U	9.037879	-1.295033	-3.885099
U	11.620121	1.295033	-3.885099
U	14.202373	1.295033	-1.295033
U	16.784625	-1.295033	-1.295033
O	4.094080	-6.204389	-6.204389
O	-1.070413	-4.155884	-9.336026
O	1.070413	-6.204389	-9.336026
O	1.511829	-3.614313	-6.745960
O	6.234917	-4.155884	-6.204389
O	1.511829	-1.565818	-8.794455
O	3.652665	-1.565818	-6.745960
O	3.652665	-3.614313	-8.794455
Rb	0.000000	-5.180137	-5.180137
Rb	2.582252	-7.770202	-7.770202
U	-1.291121	-6.475170	-9.065235
U	1.291121	-3.885104	-9.065235
U	3.873373	-3.885104	-6.475170
U	6.455625	-6.475170	-6.475170
O	9.258581	-1.024252	-6.204389
O	4.094087	1.024252	-9.336026
O	6.234914	-1.024252	-9.336026
O	6.676329	1.565823	-6.745960
O	11.399417	1.024252	-6.204389
O	6.676329	3.614318	-8.794455
O	8.817166	3.614318	-6.745960
O	8.817166	1.565823	-8.794455
Rb	5.164500	0.000000	-5.180137
Rb	7.746752	-2.590066	-7.770202
U	3.873379	-1.295033	-9.065235
U	6.455621	1.295033	-9.065235
U	9.037873	1.295033	-6.475170
U	11.620125	-1.295033	-6.475170
