40

Ag	2.020460	2.020460	2.020460
O	2.020460	2.020460	0.000000
O	0.000000	2.020460	2.020460
O	2.020460	0.000000	2.020460
Pm_3	0.000000	0.000000	0.000000
Ag	2.020460	2.020460	6.061371
O	2.020460	2.020460	4.040911
O	0.000000	2.020460	6.061371
O	2.020460	0.000000	6.061371
Pm_3	0.000000	0.000000	4.040911
Ag	2.020460	6.061371	2.020460
O	2.020460	6.061371	0.000000
O	0.000000	6.061371	2.020460
O	2.020460	4.040911	2.020460
Pm_3	0.000000	4.040911	0.000000
Ag	2.020460	6.061371	6.061371
O	2.020460	6.061371	4.040911
O	0.000000	6.061371	6.061371
O	2.020460	4.040911	6.061371
Pm_3	0.000000	4.040911	4.040911
Ag	6.061371	2.020460	2.020460
O	6.061371	2.020460	0.000000
O	4.040911	2.020460	2.020460
O	6.061371	0.000000	2.020460
Pm_3	4.040911	0.000000	0.000000
Ag	6.061371	2.020460	6.061371
O	6.061371	2.020460	4.040911
O	4.040911	2.020460	6.061371
O	6.061371	0.000000	6.061371
Pm_3	4.040911	0.000000	4.040911
Ag	6.061371	6.061371	2.020460
O	6.061371	6.061371	0.000000
O	4.040911	6.061371	2.020460
O	6.061371	4.040911	2.020460
Pm_3	4.040911	4.040911	0.000000
Ag	6.061371	6.061371	6.061371
O	6.061371	6.061371	4.040911
O	4.040911	6.061371	6.061371
O	6.061371	4.040911	6.061371
Pm_3	4.040911	4.040911	4.040911
