40

Mo	1.992576	1.992576	1.992576
O	0.000000	1.992576	1.992576
O	1.992576	0.000000	1.992576
O	1.992576	1.992576	0.000000
Tc	0.000000	0.000000	0.000000
Mo	1.992576	1.992576	5.977728
O	0.000000	1.992576	5.977728
O	1.992576	0.000000	5.977728
O	1.992576	1.992576	3.985152
Tc	0.000000	0.000000	3.985152
Mo	1.992576	5.977728	1.992576
O	0.000000	5.977728	1.992576
O	1.992576	3.985152	1.992576
O	1.992576	5.977728	0.000000
Tc	0.000000	3.985152	0.000000
Mo	1.992576	5.977728	5.977728
O	0.000000	5.977728	5.977728
O	1.992576	3.985152	5.977728
O	1.992576	5.977728	3.985152
Tc	0.000000	3.985152	3.985152
Mo	5.977728	1.992576	1.992576
O	3.985152	1.992576	1.992576
O	5.977728	0.000000	1.992576
O	5.977728	1.992576	0.000000
Tc	3.985152	0.000000	0.000000
Mo	5.977728	1.992576	5.977728
O	3.985152	1.992576	5.977728
O	5.977728	0.000000	5.977728
O	5.977728	1.992576	3.985152
Tc	3.985152	0.000000	3.985152
Mo	5.977728	5.977728	1.992576
O	3.985152	5.977728	1.992576
O	5.977728	3.985152	1.992576
O	5.977728	5.977728	0.000000
Tc	3.985152	3.985152	0.000000
Mo	5.977728	5.977728	5.977728
O	3.985152	5.977728	5.977728
O	5.977728	3.985152	5.977728
O	5.977728	5.977728	3.985152
Tc	3.985152	3.985152	3.985152
