112

Li	0.000000	0.000000	0.000000
Li	2.145869	-2.146909	-2.146909
Mg	-1.072934	-1.073455	-3.220364
Mg	3.218803	1.073455	-1.073455
Mg	5.364672	-1.073455	-1.073455
Mg	1.072934	1.073455	-3.220364
O	3.312350	-0.979483	-0.979483
O	-0.979388	0.979483	-3.314336
O	0.979388	-0.979483	-3.314336
O	1.166481	1.167426	-1.167426
O	5.271126	0.979483	-0.979483
O	1.166481	3.126392	-3.126392
O	3.125257	3.126392	-1.167426
O	3.125257	1.167426	-3.126392
Li	4.291738	4.293818	0.000000
Li	6.437607	2.146909	-2.146909
Mg	3.218803	3.220364	-3.220364
Mg	7.510541	5.367273	-1.073455
Mg	9.656410	3.220364	-1.073455
Mg	5.364672	5.367273	-3.220364
O	7.604087	3.314336	-0.979483
O	3.312350	5.273301	-3.314336
O	5.271126	3.314336	-3.314336
O	5.458218	5.461245	-1.167426
O	9.562864	5.273301	-0.979483
O	5.458218	7.420210	-3.126392
O	7.416995	7.420210	-1.167426
O	7.416995	5.461245	-3.126392
Li	-4.291738	0.000000	-4.293818
Li	-2.145869	-2.146909	-6.440727
Mg	-5.364672	-1.073455	-7.514182
Mg	-1.072934	1.073455	-5.367273
Mg	1.072934	-1.073455	-5.367273
Mg	-3.218803	1.073455	-7.514182
O	-0.979388	-0.979483	-5.273301
O	-5.271126	0.979483	-7.608154
O	-3.312350	-0.979483	-7.608154
O	-3.125257	1.167426	-5.461245
O	0.979388	0.979483	-5.273301
O	-3.125257	3.126392	-7.420210
O	-1.166481	3.126392	-5.461245
O	-1.166481	1.167426	-7.420210
Li	0.000000	4.293818	-4.293818
Li	2.145869	2.146909	-6.440727
Mg	-1.072934	3.220364	-7.514182
Mg	3.218803	5.367273	-5.367273
Mg	5.364672	3.220364	-5.367273
Mg	1.072934	5.367273	-7.514182
O	3.312350	3.314336	-5.273301
O	-0.979388	5.273301	-7.608154
O	0.979388	3.314336	-7.608154
O	1.166481	5.461245	-5.461245
O	5.271126	5.273301	-5.273301
O	1.166481	7.420210	-7.420210
O	3.125257	7.420210	-5.461245
O	3.125257	5.461245	-7.420210
Li	4.291738	-4.293818	0.000000
Li	6.437607	-6.440727	-2.146909
Mg	3.218803	-5.367273	-3.220364
Mg	7.510541	-3.220364	-1.073455
Mg	9.656410	-5.367273	-1.073455
Mg	5.364672	-3.220364	-3.220364
O	7.604087	-5.273301	-0.979483
O	3.312350	-3.314336	-3.314336
O	5.271126	-5.273301	-3.314336
O	5.458218	-3.126392	-1.167426
O	9.562864	-3.314336	-0.979483
O	5.458218	-1.167426	-3.126392
O	7.416995	-1.167426	-1.167426
O	7.416995	-3.126392	-3.126392
Li	8.583475	0.000000	0.000000
Li	10.729344	-2.146909	-2.146909
Mg	7.510541	-1.073455	-3.220364
Mg	11.802279	1.073455	-1.073455
Mg	13.948148	-1.073455	-1.073455
Mg	9.656410	1.073455	-3.220364
O	11.895825	-0.979483	-0.979483
O	7.604087	0.979483	-3.314336
O	9.562864	-0.979483	-3.314336
O	9.749956	1.167426	-1.167426
O	13.854601	0.979483	-0.979483
O	9.749956	3.126392	-3.126392
O	11.708733	3.126392	-1.167426
O	11.708733	1.167426	-3.126392
Li	0.000000	-4.293818	-4.293818
Li	2.145869	-6.440727	-6.440727
Mg	-1.072934	-5.367273	-7.514182
Mg	3.218803	-3.220364	-5.367273
Mg	5.364672	-5.367273	-5.367273
Mg	1.072934	-3.220364	-7.514182
O	3.312350	-5.273301	-5.273301
O	-0.979388	-3.314336	-7.608154
O	0.979388	-5.273301	-7.608154
O	1.166481	-3.126392	-5.461245
O	5.271126	-3.314336	-5.273301
O	1.166481	-1.167426	-7.420210
O	3.125257	-1.167426	-5.461245
O	3.125257	-3.126392	-7.420210
Li	4.291738	0.000000	-4.293818
Li	6.437607	-2.146909	-6.440727
Mg	3.218803	-1.073455	-7.514182
Mg	7.510541	1.073455	-5.367273
Mg	9.656410	-1.073455	-5.367273
Mg	5.364672	1.073455	-7.514182
O	7.604087	-0.979483	-5.273301
O	3.312350	0.979483	-7.608154
O	5.271126	-0.979483	-7.608154
O	5.458218	1.167426	-5.461245
O	9.562864	0.979483	-5.273301
O	5.458218	3.126392	-7.420210
O	7.416995	3.126392	-5.461245
O	7.416995	1.167426	-7.420210
