112

K	0.000000	0.000000	0.000000
K	2.272582	-2.273204	-2.273204
O	-0.889502	0.889229	-3.657180
O	3.655661	-0.889229	-0.889229
O	0.889502	-0.889229	-3.657180
O	1.383079	1.383976	-1.383976
O	5.434665	0.889229	-0.889229
O	1.383079	3.162443	-3.162443
O	3.162084	3.162443	-1.383976
O	3.162084	1.383976	-3.162443
Rh	-1.136296	-1.136607	-3.409811
Rh	5.681459	-1.136607	-1.136607
Rh	1.136296	1.136607	-3.409811
Rh	3.408877	1.136607	-1.136607
K	4.545164	4.546415	0.000000
K	6.817745	2.273211	-2.273204
O	3.655662	5.435643	-3.657180
O	8.200825	3.657186	-0.889229
O	5.434666	3.657186	-3.657180
O	5.928243	5.930391	-1.383976
O	9.979829	5.435643	-0.889229
O	5.928243	7.708858	-3.162443
O	7.707247	7.708858	-1.383976
O	7.707247	5.930391	-3.162443
Rh	3.408868	3.409808	-3.409811
Rh	10.226623	3.409808	-1.136607
Rh	5.681460	5.683022	-3.409811
Rh	7.954041	5.683022	-1.136607
K	-4.545164	0.000000	-4.546415
K	-2.272582	-2.273204	-6.819619
O	-5.434666	0.889229	-8.203595
O	-0.889503	-0.889229	-5.435643
O	-3.655662	-0.889229	-8.203595
O	-3.162084	1.383976	-5.930391
O	0.889501	0.889229	-5.435643
O	-3.162084	3.162443	-7.708858
O	-1.383080	3.162443	-5.930391
O	-1.383080	1.383976	-7.708858
Rh	-5.681459	-1.136607	-7.956226
Rh	1.136295	-1.136607	-5.683022
Rh	-3.408868	1.136607	-7.956226
Rh	-1.136287	1.136607	-5.683022
K	0.000000	4.546415	-4.546415
K	2.272582	2.273211	-6.819619
O	-0.889502	5.435643	-8.203595
O	3.655661	3.657186	-5.435643
O	0.889502	3.657186	-8.203595
O	1.383079	5.930391	-5.930391
O	5.434665	5.435643	-5.435643
O	1.383079	7.708858	-7.708858
O	3.162084	7.708858	-5.930391
O	3.162084	5.930391	-7.708858
Rh	-1.136296	3.409808	-7.956226
Rh	5.681459	3.409808	-5.683022
Rh	1.136296	5.683022	-7.956226
Rh	3.408877	5.683022	-5.683022
K	4.545164	-4.546415	0.000000
K	6.817745	-6.819619	-2.273204
O	3.655662	-3.657186	-3.657180
O	8.200825	-5.435643	-0.889229
O	5.434666	-5.435643	-3.657180
O	5.928243	-3.162439	-1.383976
O	9.979829	-3.657186	-0.889229
O	5.928243	-1.383972	-3.162443
O	7.707247	-1.383972	-1.383976
O	7.707247	-3.162439	-3.162443
Rh	3.408868	-5.683022	-3.409811
Rh	10.226623	-5.683022	-1.136607
Rh	5.681460	-3.409808	-3.409811
Rh	7.954041	-3.409808	-1.136607
K	9.090328	0.000000	0.000000
K	11.362909	-2.273204	-2.273204
O	8.200825	0.889229	-3.657180
O	12.745989	-0.889229	-0.889229
O	9.979830	-0.889229	-3.657180
O	10.473407	1.383976	-1.383976
O	14.524993	0.889229	-0.889229
O	10.473407	3.162443	-3.162443
O	12.252411	3.162443	-1.383976
O	12.252411	1.383976	-3.162443
Rh	7.954032	-1.136607	-3.409811
Rh	14.771786	-1.136607	-1.136607
Rh	10.226623	1.136607	-3.409811
Rh	12.499205	1.136607	-1.136607
K	0.000000	-4.546415	-4.546415
K	2.272582	-6.819619	-6.819619
O	-0.889502	-3.657186	-8.203595
O	3.655661	-5.435643	-5.435643
O	0.889502	-5.435643	-8.203595
O	1.383079	-3.162439	-5.930391
O	5.434665	-3.657186	-5.435643
O	1.383079	-1.383972	-7.708858
O	3.162084	-1.383972	-5.930391
O	3.162084	-3.162439	-7.708858
Rh	-1.136296	-5.683022	-7.956226
Rh	5.681459	-5.683022	-5.683022
Rh	1.136296	-3.409808	-7.956226
Rh	3.408877	-3.409808	-5.683022
K	4.545164	0.000000	-4.546415
K	6.817745	-2.273204	-6.819619
O	3.655662	0.889229	-8.203595
O	8.200825	-0.889229	-5.435643
O	5.434666	-0.889229	-8.203595
O	5.928243	1.383976	-5.930391
O	9.979829	0.889229	-5.435643
O	5.928243	3.162443	-7.708858
O	7.707247	3.162443	-5.930391
O	7.707247	1.383976	-7.708858
Rh	3.408868	-1.136607	-7.956226
Rh	10.226623	-1.136607	-5.683022
Rh	5.681460	1.136607	-7.956226
Rh	7.954041	1.136607	-5.683022
