40

Bi	0.000000	0.000000	0.000000
O	2.253180	2.253180	0.000000
O	0.000000	2.253180	2.253180
O	2.253180	0.000000	2.253180
Pr	2.253180	2.253180	2.253180
Bi	0.000000	0.000000	4.506369
O	2.253180	2.253180	4.506369
O	0.000000	2.253180	6.759549
O	2.253180	0.000000	6.759549
Pr	2.253180	2.253180	6.759549
Bi	0.000000	4.506369	0.000000
O	2.253180	6.759549	0.000000
O	0.000000	6.759549	2.253180
O	2.253180	4.506369	2.253180
Pr	2.253180	6.759549	2.253180
Bi	0.000000	4.506369	4.506369
O	2.253180	6.759549	4.506369
O	0.000000	6.759549	6.759549
O	2.253180	4.506369	6.759549
Pr	2.253180	6.759549	6.759549
Bi	4.506369	0.000000	0.000000
O	6.759549	2.253180	0.000000
O	4.506369	2.253180	2.253180
O	6.759549	0.000000	2.253180
Pr	6.759549	2.253180	2.253180
Bi	4.506369	0.000000	4.506369
O	6.759549	2.253180	4.506369
O	4.506369	2.253180	6.759549
O	6.759549	0.000000	6.759549
Pr	6.759549	2.253180	6.759549
Bi	4.506369	4.506369	0.000000
O	6.759549	6.759549	0.000000
O	4.506369	6.759549	2.253180
O	6.759549	4.506369	2.253180
Pr	6.759549	6.759549	2.253180
Bi	4.506369	4.506369	4.506369
O	6.759549	6.759549	4.506369
O	4.506369	6.759549	6.759549
O	6.759549	4.506369	6.759549
Pr	6.759549	6.759549	6.759549
