40

Cu	0.000000	0.000000	0.000000
Er	2.139901	2.139901	2.139901
O	2.139901	2.139901	0.000000
O	2.139901	0.000000	2.139901
O	0.000000	2.139901	2.139901
Cu	0.000000	0.000000	4.279806
Er	2.139901	2.139901	6.419707
O	2.139901	2.139901	4.279806
O	2.139901	0.000000	6.419707
O	0.000000	2.139901	6.419707
Cu	0.000000	4.279806	0.000000
Er	2.139901	6.419707	2.139901
O	2.139901	6.419707	0.000000
O	2.139901	4.279806	2.139901
O	0.000000	6.419707	2.139901
Cu	0.000000	4.279806	4.279806
Er	2.139901	6.419707	6.419707
O	2.139901	6.419707	4.279806
O	2.139901	4.279806	6.419707
O	0.000000	6.419707	6.419707
Cu	4.279806	0.000000	0.000000
Er	6.419707	2.139901	2.139901
O	6.419707	2.139901	0.000000
O	6.419707	0.000000	2.139901
O	4.279806	2.139901	2.139901
Cu	4.279806	0.000000	4.279806
Er	6.419707	2.139901	6.419707
O	6.419707	2.139901	4.279806
O	6.419707	0.000000	6.419707
O	4.279806	2.139901	6.419707
Cu	4.279806	4.279806	0.000000
Er	6.419707	6.419707	2.139901
O	6.419707	6.419707	0.000000
O	6.419707	4.279806	2.139901
O	4.279806	6.419707	2.139901
Cu	4.279806	4.279806	4.279806
Er	6.419707	6.419707	6.419707
O	6.419707	6.419707	4.279806
O	6.419707	4.279806	6.419707
O	4.279806	6.419707	6.419707
