40

O	0.000000	2.011654	2.011654
O	2.011654	0.000000	2.011654
O	2.011654	2.011654	0.000000
Os	0.000000	0.000000	0.000000
Ta	2.011654	2.011654	2.011654
O	0.000000	2.011654	6.034962
O	2.011654	0.000000	6.034962
O	2.011654	2.011654	4.023308
Os	0.000000	0.000000	4.023308
Ta	2.011654	2.011654	6.034962
O	0.000000	6.034962	2.011654
O	2.011654	4.023308	2.011654
O	2.011654	6.034962	0.000000
Os	0.000000	4.023308	0.000000
Ta	2.011654	6.034962	2.011654
O	0.000000	6.034962	6.034962
O	2.011654	4.023308	6.034962
O	2.011654	6.034962	4.023308
Os	0.000000	4.023308	4.023308
Ta	2.011654	6.034962	6.034962
O	4.023308	2.011654	2.011654
O	6.034962	0.000000	2.011654
O	6.034962	2.011654	0.000000
Os	4.023308	0.000000	0.000000
Ta	6.034962	2.011654	2.011654
O	4.023308	2.011654	6.034962
O	6.034962	0.000000	6.034962
O	6.034962	2.011654	4.023308
Os	4.023308	0.000000	4.023308
Ta	6.034962	2.011654	6.034962
O	4.023308	6.034962	2.011654
O	6.034962	4.023308	2.011654
O	6.034962	6.034962	0.000000
Os	4.023308	4.023308	0.000000
Ta	6.034962	6.034962	2.011654
O	4.023308	6.034962	6.034962
O	6.034962	4.023308	6.034962
O	6.034962	6.034962	4.023308
Os	4.023308	4.023308	4.023308
Ta	6.034962	6.034962	6.034962
