40

O	0.000000	1.959884	1.959884
O	1.959884	0.000000	1.959884
O	1.959884	1.959884	0.000000
Os	1.959884	1.959884	1.959884
Ta	0.000000	0.000000	0.000000
O	0.000000	1.959884	5.879653
O	1.959884	0.000000	5.879653
O	1.959884	1.959884	3.919769
Os	1.959884	1.959884	5.879653
Ta	0.000000	0.000000	3.919769
O	0.000000	5.879653	1.959884
O	1.959884	3.919769	1.959884
O	1.959884	5.879653	0.000000
Os	1.959884	5.879653	1.959884
Ta	0.000000	3.919769	0.000000
O	0.000000	5.879653	5.879653
O	1.959884	3.919769	5.879653
O	1.959884	5.879653	3.919769
Os	1.959884	5.879653	5.879653
Ta	0.000000	3.919769	3.919769
O	3.919769	1.959884	1.959884
O	5.879653	0.000000	1.959884
O	5.879653	1.959884	0.000000
Os	5.879653	1.959884	1.959884
Ta	3.919769	0.000000	0.000000
O	3.919769	1.959884	5.879653
O	5.879653	0.000000	5.879653
O	5.879653	1.959884	3.919769
Os	5.879653	1.959884	5.879653
Ta	3.919769	0.000000	3.919769
O	3.919769	5.879653	1.959884
O	5.879653	3.919769	1.959884
O	5.879653	5.879653	0.000000
Os	5.879653	5.879653	1.959884
Ta	3.919769	3.919769	0.000000
O	3.919769	5.879653	5.879653
O	5.879653	3.919769	5.879653
O	5.879653	5.879653	3.919769
Os	5.879653	5.879653	5.879653
Ta	3.919769	3.919769	3.919769
