40

Ce	0.000000	0.000000	0.000000
Nd	2.233320	2.233320	2.233320
O	2.233320	0.000000	2.233320
O	0.000000	2.233320	2.233320
O	2.233320	2.233320	0.000000
Ce	0.000000	0.000000	4.466644
Nd	2.233320	2.233320	6.699964
O	2.233320	0.000000	6.699964
O	0.000000	2.233320	6.699964
O	2.233320	2.233320	4.466644
Ce	0.000000	4.466644	0.000000
Nd	2.233320	6.699964	2.233320
O	2.233320	4.466644	2.233320
O	0.000000	6.699964	2.233320
O	2.233320	6.699964	0.000000
Ce	0.000000	4.466644	4.466644
Nd	2.233320	6.699964	6.699964
O	2.233320	4.466644	6.699964
O	0.000000	6.699964	6.699964
O	2.233320	6.699964	4.466644
Ce	4.466644	0.000000	0.000000
Nd	6.699964	2.233320	2.233320
O	6.699964	0.000000	2.233320
O	4.466644	2.233320	2.233320
O	6.699964	2.233320	0.000000
Ce	4.466644	0.000000	4.466644
Nd	6.699964	2.233320	6.699964
O	6.699964	0.000000	6.699964
O	4.466644	2.233320	6.699964
O	6.699964	2.233320	4.466644
Ce	4.466644	4.466644	0.000000
Nd	6.699964	6.699964	2.233320
O	6.699964	4.466644	2.233320
O	4.466644	6.699964	2.233320
O	6.699964	6.699964	0.000000
Ce	4.466644	4.466644	4.466644
Nd	6.699964	6.699964	6.699964
O	6.699964	4.466644	6.699964
O	4.466644	6.699964	6.699964
O	6.699964	6.699964	4.466644
