112

Hg	0.000000	0.000000	0.000000
Hg	2.471320	-2.471650	-2.471650
O	3.829785	-1.112504	-1.112504
O	-1.112864	1.112504	-3.830806
O	1.112864	-1.112504	-3.830806
O	1.358465	1.359156	-1.359156
O	6.055504	1.112504	-1.112504
O	1.358465	3.584153	-3.584153
O	3.584184	3.584153	-1.359156
O	3.584184	1.359156	-3.584153
Pm	-1.235665	-1.235830	-3.707480
Pm	6.178304	-1.235830	-1.235830
Pm	3.706984	1.235830	-1.235830
Pm	1.235665	1.235830	-3.707480
Hg	4.942643	4.943303	0.000000
Hg	7.413963	2.471653	-2.471650
O	8.772428	3.830799	-1.112504
O	3.829779	6.055806	-3.830806
O	6.055508	3.830799	-3.830806
O	6.301109	6.302459	-1.359156
O	10.998147	6.055806	-1.112504
O	6.301109	8.527456	-3.584153
O	8.526828	8.527456	-1.359156
O	8.526828	6.302459	-3.584153
Pm	3.706979	3.707473	-3.707480
Pm	11.120947	3.707473	-1.235830
Pm	8.649628	6.179132	-1.235830
Pm	6.178308	6.179132	-3.707480
Hg	-4.942643	0.000000	-4.943303
Hg	-2.471324	-2.471650	-7.414952
O	-1.112859	-1.112504	-6.055806
O	-6.055508	1.112504	-8.774108
O	-3.829779	-1.112504	-8.774108
O	-3.584178	1.359156	-6.302459
O	1.112860	1.112504	-6.055806
O	-3.584178	3.584153	-8.527456
O	-1.358459	3.584153	-6.302459
O	-1.358459	1.359156	-8.527456
Pm	-6.178308	-1.235830	-8.650782
Pm	1.235661	-1.235830	-6.179132
Pm	-1.235659	1.235830	-6.179132
Pm	-3.706979	1.235830	-8.650782
Hg	0.000000	4.943303	-4.943303
Hg	2.471320	2.471653	-7.414952
O	3.829785	3.830799	-6.055806
O	-1.112864	6.055806	-8.774108
O	1.112864	3.830799	-8.774108
O	1.358465	6.302459	-6.302459
O	6.055504	6.055806	-6.055806
O	1.358465	8.527456	-8.527456
O	3.584184	8.527456	-6.302459
O	3.584184	6.302459	-8.527456
Pm	-1.235665	3.707473	-8.650782
Pm	6.178304	3.707473	-6.179132
Pm	3.706984	6.179132	-6.179132
Pm	1.235665	6.179132	-8.650782
Hg	4.942643	-4.943303	0.000000
Hg	7.413963	-7.414952	-2.471650
O	8.772428	-6.055806	-1.112504
O	3.829779	-3.830799	-3.830806
O	6.055508	-6.055806	-3.830806
O	6.301109	-3.584147	-1.359156
O	10.998147	-3.830799	-1.112504
O	6.301109	-1.359149	-3.584153
O	8.526828	-1.359149	-1.359156
O	8.526828	-3.584147	-3.584153
Pm	3.706979	-6.179132	-3.707480
Pm	11.120947	-6.179132	-1.235830
Pm	8.649628	-3.707473	-1.235830
Pm	6.178308	-3.707473	-3.707480
Hg	9.885287	0.000000	0.000000
Hg	12.356607	-2.471650	-2.471650
O	13.715072	-1.112504	-1.112504
O	8.772423	1.112504	-3.830806
O	10.998151	-1.112504	-3.830806
O	11.243752	1.359156	-1.359156
O	15.940791	1.112504	-1.112504
O	11.243752	3.584153	-3.584153
O	13.469471	3.584153	-1.359156
O	13.469471	1.359156	-3.584153
Pm	8.649622	-1.235830	-3.707480
Pm	16.063591	-1.235830	-1.235830
Pm	13.592271	1.235830	-1.235830
Pm	11.120952	1.235830	-3.707480
Hg	0.000000	-4.943303	-4.943303
Hg	2.471320	-7.414952	-7.414952
O	3.829785	-6.055806	-6.055806
O	-1.112864	-3.830799	-8.774108
O	1.112864	-6.055806	-8.774108
O	1.358465	-3.584147	-6.302459
O	6.055504	-3.830799	-6.055806
O	1.358465	-1.359149	-8.527456
O	3.584184	-1.359149	-6.302459
O	3.584184	-3.584147	-8.527456
Pm	-1.235665	-6.179132	-8.650782
Pm	6.178304	-6.179132	-6.179132
Pm	3.706984	-3.707473	-6.179132
Pm	1.235665	-3.707473	-8.650782
Hg	4.942643	0.000000	-4.943303
Hg	7.413963	-2.471650	-7.414952
O	8.772428	-1.112504	-6.055806
O	3.829779	1.112504	-8.774108
O	6.055508	-1.112504	-8.774108
O	6.301109	1.359156	-6.302459
O	10.998147	1.112504	-6.055806
O	6.301109	3.584153	-8.527456
O	8.526828	3.584153	-6.302459
O	8.526828	1.359156	-8.527456
Pm	3.706979	-1.235830	-8.650782
Pm	11.120947	-1.235830	-6.179132
Pm	8.649628	1.235830	-6.179132
Pm	6.178308	1.235830	-8.650782
