40

B	1.740475	1.740475	1.740475
Dy	0.000000	0.000000	0.000000
O	1.740475	1.740475	0.000000
O	1.740475	0.000000	1.740475
O	0.000000	1.740475	1.740475
B	1.740475	1.740475	5.221424
Dy	0.000000	0.000000	3.480949
O	1.740475	1.740475	3.480949
O	1.740475	0.000000	5.221424
O	0.000000	1.740475	5.221424
B	1.740475	5.221424	1.740475
Dy	0.000000	3.480949	0.000000
O	1.740475	5.221424	0.000000
O	1.740475	3.480949	1.740475
O	0.000000	5.221424	1.740475
B	1.740475	5.221424	5.221424
Dy	0.000000	3.480949	3.480949
O	1.740475	5.221424	3.480949
O	1.740475	3.480949	5.221424
O	0.000000	5.221424	5.221424
B	5.221424	1.740475	1.740475
Dy	3.480949	0.000000	0.000000
O	5.221424	1.740475	0.000000
O	5.221424	0.000000	1.740475
O	3.480949	1.740475	1.740475
B	5.221424	1.740475	5.221424
Dy	3.480949	0.000000	3.480949
O	5.221424	1.740475	3.480949
O	5.221424	0.000000	5.221424
O	3.480949	1.740475	5.221424
B	5.221424	5.221424	1.740475
Dy	3.480949	3.480949	0.000000
O	5.221424	5.221424	0.000000
O	5.221424	3.480949	1.740475
O	3.480949	5.221424	1.740475
B	5.221424	5.221424	5.221424
Dy	3.480949	3.480949	3.480949
O	5.221424	5.221424	3.480949
O	5.221424	3.480949	5.221424
O	3.480949	5.221424	5.221424
