112

Cd	0.000000	0.000000	0.000000
Cd	2.382741	-2.383466	-2.383466
Ho	-1.191370	-1.191733	-3.575198
Ho	3.574111	1.191733	-1.191733
Ho	5.956852	-1.191733	-1.191733
Ho	1.191370	1.191733	-3.575198
O	3.693936	-1.071405	-1.071405
O	-1.071546	1.071405	-3.695526
O	1.071546	-1.071405	-3.695526
O	1.311195	1.312060	-1.312060
O	5.837027	1.071405	-1.071405
O	1.311195	3.454871	-3.454871
O	3.454287	3.454871	-1.312060
O	3.454287	1.312060	-3.454871
Cd	4.765481	4.766931	0.000000
Cd	7.148222	2.383466	-2.383466
Ho	3.574111	3.575198	-3.575198
Ho	8.339593	5.958664	-1.191733
Ho	10.722333	3.575198	-1.191733
Ho	5.956852	5.958664	-3.575198
O	8.459417	3.695526	-1.071405
O	3.693936	5.838336	-3.695526
O	5.837027	3.695526	-3.695526
O	6.076676	6.078991	-1.312060
O	10.602509	5.838336	-1.071405
O	6.076676	8.221802	-3.454871
O	8.219768	8.221802	-1.312060
O	8.219768	6.078991	-3.454871
Cd	-4.765481	0.000000	-4.766931
Cd	-2.382741	-2.383466	-7.150397
Ho	-5.956852	-1.191733	-8.342129
Ho	-1.191370	1.191733	-5.958664
Ho	1.191370	-1.191733	-5.958664
Ho	-3.574111	1.191733	-8.342129
O	-1.071546	-1.071405	-5.838336
O	-5.837027	1.071405	-8.462457
O	-3.693936	-1.071405	-8.462457
O	-3.454287	1.312060	-6.078991
O	1.071546	1.071405	-5.838336
O	-3.454287	3.454871	-8.221802
O	-1.311195	3.454871	-6.078991
O	-1.311195	1.312060	-8.221802
Cd	0.000000	4.766931	-4.766931
Cd	2.382741	2.383466	-7.150397
Ho	-1.191370	3.575198	-8.342129
Ho	3.574111	5.958664	-5.958664
Ho	5.956852	3.575198	-5.958664
Ho	1.191370	5.958664	-8.342129
O	3.693936	3.695526	-5.838336
O	-1.071546	5.838336	-8.462457
O	1.071546	3.695526	-8.462457
O	1.311195	6.078991	-6.078991
O	5.837027	5.838336	-5.838336
O	1.311195	8.221802	-8.221802
O	3.454287	8.221802	-6.078991
O	3.454287	6.078991	-8.221802
Cd	4.765481	-4.766931	0.000000
Cd	7.148222	-7.150397	-2.383466
Ho	3.574111	-5.958664	-3.575198
Ho	8.339593	-3.575198	-1.191733
Ho	10.722333	-5.958664	-1.191733
Ho	5.956852	-3.575198	-3.575198
O	8.459417	-5.838336	-1.071405
O	3.693936	-3.695526	-3.695526
O	5.837027	-5.838336	-3.695526
O	6.076676	-3.454871	-1.312060
O	10.602509	-3.695526	-1.071405
O	6.076676	-1.312060	-3.454871
O	8.219768	-1.312060	-1.312060
O	8.219768	-3.454871	-3.454871
Cd	9.530963	0.000000	0.000000
Cd	11.913704	-2.383466	-2.383466
Ho	8.339593	-1.191733	-3.575198
Ho	13.105074	1.191733	-1.191733
Ho	15.487815	-1.191733	-1.191733
Ho	10.722333	1.191733	-3.575198
O	13.224898	-1.071405	-1.071405
O	8.459417	1.071405	-3.695526
O	10.602509	-1.071405	-3.695526
O	10.842158	1.312060	-1.312060
O	15.367990	1.071405	-1.071405
O	10.842158	3.454871	-3.454871
O	12.985250	3.454871	-1.312060
O	12.985250	1.312060	-3.454871
Cd	0.000000	-4.766931	-4.766931
Cd	2.382741	-7.150397	-7.150397
Ho	-1.191370	-5.958664	-8.342129
Ho	3.574111	-3.575198	-5.958664
Ho	5.956852	-5.958664	-5.958664
Ho	1.191370	-3.575198	-8.342129
O	3.693936	-5.838336	-5.838336
O	-1.071546	-3.695526	-8.462457
O	1.071546	-5.838336	-8.462457
O	1.311195	-3.454871	-6.078991
O	5.837027	-3.695526	-5.838336
O	1.311195	-1.312060	-8.221802
O	3.454287	-1.312060	-6.078991
O	3.454287	-3.454871	-8.221802
Cd	4.765481	0.000000	-4.766931
Cd	7.148222	-2.383466	-7.150397
Ho	3.574111	-1.191733	-8.342129
Ho	8.339593	1.191733	-5.958664
Ho	10.722333	-1.191733	-5.958664
Ho	5.956852	1.191733	-8.342129
O	8.459417	-1.071405	-5.838336
O	3.693936	1.071405	-8.462457
O	5.837027	-1.071405	-8.462457
O	6.076676	1.312060	-6.078991
O	10.602509	1.071405	-5.838336
O	6.076676	3.454871	-8.221802
O	8.219768	3.454871	-6.078991
O	8.219768	1.312060	-8.221802
