112

Gd	0.000000	0.000000	0.000000
Gd	2.499262	-2.499420	-2.499420
O	3.767621	-1.230368	-1.230368
O	-1.230902	1.230368	-3.768472
O	1.230902	-1.230368	-3.768472
O	1.268360	1.269052	-1.269052
O	6.229425	1.230368	-1.230368
O	1.268360	3.729789	-3.729789
O	3.730163	3.729789	-1.269052
O	3.730163	1.269052	-3.729789
Pr	-1.249631	-1.249710	-3.749130
Pr	3.748892	1.249710	-1.249710
Pr	6.248154	-1.249710	-1.249710
Pr	1.249631	1.249710	-3.749130
Gd	4.998523	4.998841	0.000000
Gd	7.497785	2.499420	-2.499420
O	8.766144	3.768472	-1.230368
O	3.767621	6.229209	-3.768472
O	6.229425	3.768472	-3.768472
O	6.266883	6.267892	-1.269052
O	11.227948	6.229209	-1.230368
O	6.266883	8.728629	-3.729789
O	8.728686	8.728629	-1.269052
O	8.728686	6.267892	-3.729789
Pr	3.748892	3.749130	-3.749130
Pr	8.747415	6.248551	-1.249710
Pr	11.246677	3.749130	-1.249710
Pr	6.248154	6.248551	-3.749130
Gd	-4.998523	0.000000	-4.998841
Gd	-2.499262	-2.499420	-7.498261
O	-1.230902	-1.230368	-6.229209
O	-6.229425	1.230368	-8.767313
O	-3.767621	-1.230368	-8.767313
O	-3.730163	1.269052	-6.267892
O	1.230902	1.230368	-6.229209
O	-3.730163	3.729789	-8.728629
O	-1.268360	3.729789	-6.267892
O	-1.268360	1.269052	-8.728629
Pr	-6.248154	-1.249710	-8.747971
Pr	-1.249631	1.249710	-6.248551
Pr	1.249631	-1.249710	-6.248551
Pr	-3.748892	1.249710	-8.747971
Gd	0.000000	4.998841	-4.998841
Gd	2.499262	2.499420	-7.498261
O	3.767621	3.768472	-6.229209
O	-1.230902	6.229209	-8.767313
O	1.230902	3.768472	-8.767313
O	1.268360	6.267892	-6.267892
O	6.229425	6.229209	-6.229209
O	1.268360	8.728629	-8.728629
O	3.730163	8.728629	-6.267892
O	3.730163	6.267892	-8.728629
Pr	-1.249631	3.749130	-8.747971
Pr	3.748892	6.248551	-6.248551
Pr	6.248154	3.749130	-6.248551
Pr	1.249631	6.248551	-8.747971
Gd	4.998523	-4.998841	0.000000
Gd	7.497785	-7.498261	-2.499420
O	8.766144	-6.229209	-1.230368
O	3.767621	-3.768472	-3.768472
O	6.229425	-6.229209	-3.768472
O	6.266883	-3.729789	-1.269052
O	11.227948	-3.768472	-1.230368
O	6.266883	-1.269052	-3.729789
O	8.728686	-1.269052	-1.269052
O	8.728686	-3.729789	-3.729789
Pr	3.748892	-6.248551	-3.749130
Pr	8.747415	-3.749130	-1.249710
Pr	11.246677	-6.248551	-1.249710
Pr	6.248154	-3.749130	-3.749130
Gd	9.997046	0.000000	0.000000
Gd	12.496308	-2.499420	-2.499420
O	13.764667	-1.230368	-1.230368
O	8.766144	1.230368	-3.768472
O	11.227948	-1.230368	-3.768472
O	11.265406	1.269052	-1.269052
O	16.226471	1.230368	-1.230368
O	11.265406	3.729789	-3.729789
O	13.727209	3.729789	-1.269052
O	13.727209	1.269052	-3.729789
Pr	8.747415	-1.249710	-3.749130
Pr	13.745938	1.249710	-1.249710
Pr	16.245200	-1.249710	-1.249710
Pr	11.246677	1.249710	-3.749130
Gd	0.000000	-4.998841	-4.998841
Gd	2.499262	-7.498261	-7.498261
O	3.767621	-6.229209	-6.229209
O	-1.230902	-3.768472	-8.767313
O	1.230902	-6.229209	-8.767313
O	1.268360	-3.729789	-6.267892
O	6.229425	-3.768472	-6.229209
O	1.268360	-1.269052	-8.728629
O	3.730163	-1.269052	-6.267892
O	3.730163	-3.729789	-8.728629
Pr	-1.249631	-6.248551	-8.747971
Pr	3.748892	-3.749130	-6.248551
Pr	6.248154	-6.248551	-6.248551
Pr	1.249631	-3.749130	-8.747971
Gd	4.998523	0.000000	-4.998841
Gd	7.497785	-2.499420	-7.498261
O	8.766144	-1.230368	-6.229209
O	3.767621	1.230368	-8.767313
O	6.229425	-1.230368	-8.767313
O	6.266883	1.269052	-6.267892
O	11.227948	1.230368	-6.229209
O	6.266883	3.729789	-8.728629
O	8.728686	3.729789	-6.267892
O	8.728686	1.269052	-8.728629
Pr	3.748892	-1.249710	-8.747971
Pr	8.747415	1.249710	-6.248551
Pr	11.246677	-1.249710	-6.248551
Pr	6.248154	1.249710	-8.747971
