320

Ce	0.000000	0.000000	0.000000
Ce	4.391254	4.391254	0.000000
Ce	4.391254	0.000000	4.391254
Ce	0.000000	4.391254	4.391254
O	4.391254	0.000000	0.000000
O	0.000000	4.391254	0.000000
O	6.504294	3.402984	0.266378
O	6.669468	7.794238	0.266378
O	8.516129	2.113040	0.988270
O	4.657632	6.504294	0.988270
O	3.402984	4.124876	2.113040
O	0.988270	8.516129	2.113040
O	7.794238	4.124876	2.278214
O	5.379524	8.516129	2.278214
O	4.124876	2.113040	3.402984
O	0.266378	6.504294	3.402984
O	2.113040	3.402984	4.124876
O	2.278214	7.794238	4.124876
O	0.000000	0.000000	4.391254
O	4.391254	4.391254	4.391254
O	6.504294	0.988270	4.657632
O	6.669468	5.379524	4.657632
O	8.516129	2.278214	5.379524
O	4.657632	6.669468	5.379524
O	3.402984	0.266378	6.504294
O	0.988270	4.657632	6.504294
O	7.794238	0.266378	6.669468
O	5.379524	4.657632	6.669468
O	4.124876	2.278214	7.794238
O	0.266378	6.669468	7.794238
O	2.113040	0.988270	8.516129
O	2.278214	5.379524	8.516129
P	7.870050	3.478796	0.912458
P	5.303712	7.870050	0.912458
P	3.478796	3.478796	3.478796
P	0.912458	7.870050	3.478796
P	7.870050	0.912458	5.303712
P	5.303712	5.303712	5.303712
P	3.478796	0.912458	7.870050
P	0.912458	5.303712	7.870050
Ce	0.000000	0.000000	8.782508
Ce	4.391254	4.391254	8.782508
Ce	4.391254	0.000000	13.173762
Ce	0.000000	4.391254	13.173762
O	4.391254	0.000000	8.782508
O	0.000000	4.391254	8.782508
O	6.504294	3.402984	9.048886
O	6.669468	7.794238	9.048886
O	8.516129	2.113040	9.770778
O	4.657632	6.504294	9.770778
O	3.402984	4.124876	10.895548
O	0.988270	8.516129	10.895548
O	7.794238	4.124876	11.060722
O	5.379524	8.516129	11.060722
O	4.124876	2.113040	12.185492
O	0.266378	6.504294	12.185492
O	2.113040	3.402984	12.907383
O	2.278214	7.794238	12.907383
O	0.000000	0.000000	13.173762
O	4.391254	4.391254	13.173762
O	6.504294	0.988270	13.440140
O	6.669468	5.379524	13.440140
O	8.516129	2.278214	14.162032
O	4.657632	6.669468	14.162032
O	3.402984	0.266378	15.286802
O	0.988270	4.657632	15.286802
O	7.794238	0.266378	15.451976
O	5.379524	4.657632	15.451976
O	4.124876	2.278214	16.576746
O	0.266378	6.669468	16.576746
O	2.113040	0.988270	17.298637
O	2.278214	5.379524	17.298637
P	7.870050	3.478796	9.694966
P	5.303712	7.870050	9.694966
P	3.478796	3.478796	12.261304
P	0.912458	7.870050	12.261304
P	7.870050	0.912458	14.086220
P	5.303712	5.303712	14.086220
P	3.478796	0.912458	16.652558
P	0.912458	5.303712	16.652558
Ce	0.000000	8.782508	0.000000
Ce	4.391254	13.173762	0.000000
Ce	4.391254	8.782508	4.391254
Ce	0.000000	13.173762	4.391254
O	4.391254	8.782508	0.000000
O	0.000000	13.173762	0.000000
O	6.504294	12.185492	0.266378
O	6.669468	16.576746	0.266378
O	8.516129	10.895548	0.988270
O	4.657632	15.286802	0.988270
O	3.402984	12.907383	2.113040
O	0.988270	17.298637	2.113040
O	7.794238	12.907383	2.278214
O	5.379524	17.298637	2.278214
O	4.124876	10.895548	3.402984
O	0.266378	15.286802	3.402984
O	2.113040	12.185492	4.124876
O	2.278214	16.576746	4.124876
O	0.000000	8.782508	4.391254
O	4.391254	13.173762	4.391254
O	6.504294	9.770778	4.657632
O	6.669468	14.162032	4.657632
O	8.516129	11.060722	5.379524
O	4.657632	15.451976	5.379524
O	3.402984	9.048886	6.504294
O	0.988270	13.440140	6.504294
O	7.794238	9.048886	6.669468
O	5.379524	13.440140	6.669468
O	4.124876	11.060722	7.794238
O	0.266378	15.451976	7.794238
O	2.113040	9.770778	8.516129
O	2.278214	14.162032	8.516129
P	7.870050	12.261304	0.912458
P	5.303712	16.652558	0.912458
P	3.478796	12.261304	3.478796
P	0.912458	16.652558	3.478796
P	7.870050	9.694966	5.303712
P	5.303712	14.086220	5.303712
P	3.478796	9.694966	7.870050
P	0.912458	14.086220	7.870050
Ce	0.000000	8.782508	8.782508
Ce	4.391254	13.173762	8.782508
Ce	4.391254	8.782508	13.173762
Ce	0.000000	13.173762	13.173762
O	4.391254	8.782508	8.782508
O	0.000000	13.173762	8.782508
O	6.504294	12.185492	9.048886
O	6.669468	16.576746	9.048886
O	8.516129	10.895548	9.770778
O	4.657632	15.286802	9.770778
O	3.402984	12.907383	10.895548
O	0.988270	17.298637	10.895548
O	7.794238	12.907383	11.060722
O	5.379524	17.298637	11.060722
O	4.124876	10.895548	12.185492
O	0.266378	15.286802	12.185492
O	2.113040	12.185492	12.907383
O	2.278214	16.576746	12.907383
O	0.000000	8.782508	13.173762
O	4.391254	13.173762	13.173762
O	6.504294	9.770778	13.440140
O	6.669468	14.162032	13.440140
O	8.516129	11.060722	14.162032
O	4.657632	15.451976	14.162032
O	3.402984	9.048886	15.286802
O	0.988270	13.440140	15.286802
O	7.794238	9.048886	15.451976
O	5.379524	13.440140	15.451976
O	4.124876	11.060722	16.576746
O	0.266378	15.451976	16.576746
O	2.113040	9.770778	17.298637
O	2.278214	14.162032	17.298637
P	7.870050	12.261304	9.694966
P	5.303712	16.652558	9.694966
P	3.478796	12.261304	12.261304
P	0.912458	16.652558	12.261304
P	7.870050	9.694966	14.086220
P	5.303712	14.086220	14.086220
P	3.478796	9.694966	16.652558
P	0.912458	14.086220	16.652558
Ce	8.782508	0.000000	0.000000
Ce	13.173762	4.391254	0.000000
Ce	13.173762	0.000000	4.391254
Ce	8.782508	4.391254	4.391254
O	13.173762	0.000000	0.000000
O	8.782508	4.391254	0.000000
O	15.286802	3.402984	0.266378
O	15.451976	7.794238	0.266378
O	17.298637	2.113040	0.988270
O	13.440140	6.504294	0.988270
O	12.185492	4.124876	2.113040
O	9.770778	8.516129	2.113040
O	16.576746	4.124876	2.278214
O	14.162032	8.516129	2.278214
O	12.907383	2.113040	3.402984
O	9.048886	6.504294	3.402984
O	10.895548	3.402984	4.124876
O	11.060722	7.794238	4.124876
O	8.782508	0.000000	4.391254
O	13.173762	4.391254	4.391254
O	15.286802	0.988270	4.657632
O	15.451976	5.379524	4.657632
O	17.298637	2.278214	5.379524
O	13.440140	6.669468	5.379524
O	12.185492	0.266378	6.504294
O	9.770778	4.657632	6.504294
O	16.576746	0.266378	6.669468
O	14.162032	4.657632	6.669468
O	12.907383	2.278214	7.794238
O	9.048886	6.669468	7.794238
O	10.895548	0.988270	8.516129
O	11.060722	5.379524	8.516129
P	16.652558	3.478796	0.912458
P	14.086220	7.870050	0.912458
P	12.261304	3.478796	3.478796
P	9.694966	7.870050	3.478796
P	16.652558	0.912458	5.303712
P	14.086220	5.303712	5.303712
P	12.261304	0.912458	7.870050
P	9.694966	5.303712	7.870050
Ce	8.782508	0.000000	8.782508
Ce	13.173762	4.391254	8.782508
Ce	13.173762	0.000000	13.173762
Ce	8.782508	4.391254	13.173762
O	13.173762	0.000000	8.782508
O	8.782508	4.391254	8.782508
O	15.286802	3.402984	9.048886
O	15.451976	7.794238	9.048886
O	17.298637	2.113040	9.770778
O	13.440140	6.504294	9.770778
O	12.185492	4.124876	10.895548
O	9.770778	8.516129	10.895548
O	16.576746	4.124876	11.060722
O	14.162032	8.516129	11.060722
O	12.907383	2.113040	12.185492
O	9.048886	6.504294	12.185492
O	10.895548	3.402984	12.907383
O	11.060722	7.794238	12.907383
O	8.782508	0.000000	13.173762
O	13.173762	4.391254	13.173762
O	15.286802	0.988270	13.440140
O	15.451976	5.379524	13.440140
O	17.298637	2.278214	14.162032
O	13.440140	6.669468	14.162032
O	12.185492	0.266378	15.286802
O	9.770778	4.657632	15.286802
O	16.576746	0.266378	15.451976
O	14.162032	4.657632	15.451976
O	12.907383	2.278214	16.576746
O	9.048886	6.669468	16.576746
O	10.895548	0.988270	17.298637
O	11.060722	5.379524	17.298637
P	16.652558	3.478796	9.694966
P	14.086220	7.870050	9.694966
P	12.261304	3.478796	12.261304
P	9.694966	7.870050	12.261304
P	16.652558	0.912458	14.086220
P	14.086220	5.303712	14.086220
P	12.261304	0.912458	16.652558
P	9.694966	5.303712	16.652558
Ce	8.782508	8.782508	0.000000
Ce	13.173762	13.173762	0.000000
Ce	13.173762	8.782508	4.391254
Ce	8.782508	13.173762	4.391254
O	13.173762	8.782508	0.000000
O	8.782508	13.173762	0.000000
O	15.286802	12.185492	0.266378
O	15.451976	16.576746	0.266378
O	17.298637	10.895548	0.988270
O	13.440140	15.286802	0.988270
O	12.185492	12.907383	2.113040
O	9.770778	17.298637	2.113040
O	16.576746	12.907383	2.278214
O	14.162032	17.298637	2.278214
O	12.907383	10.895548	3.402984
O	9.048886	15.286802	3.402984
O	10.895548	12.185492	4.124876
O	11.060722	16.576746	4.124876
O	8.782508	8.782508	4.391254
O	13.173762	13.173762	4.391254
O	15.286802	9.770778	4.657632
O	15.451976	14.162032	4.657632
O	17.298637	11.060722	5.379524
O	13.440140	15.451976	5.379524
O	12.185492	9.048886	6.504294
O	9.770778	13.440140	6.504294
O	16.576746	9.048886	6.669468
O	14.162032	13.440140	6.669468
O	12.907383	11.060722	7.794238
O	9.048886	15.451976	7.794238
O	10.895548	9.770778	8.516129
O	11.060722	14.162032	8.516129
P	16.652558	12.261304	0.912458
P	14.086220	16.652558	0.912458
P	12.261304	12.261304	3.478796
P	9.694966	16.652558	3.478796
P	16.652558	9.694966	5.303712
P	14.086220	14.086220	5.303712
P	12.261304	9.694966	7.870050
P	9.694966	14.086220	7.870050
Ce	8.782508	8.782508	8.782508
Ce	13.173762	13.173762	8.782508
Ce	13.173762	8.782508	13.173762
Ce	8.782508	13.173762	13.173762
O	13.173762	8.782508	8.782508
O	8.782508	13.173762	8.782508
O	15.286802	12.185492	9.048886
O	15.451976	16.576746	9.048886
O	17.298637	10.895548	9.770778
O	13.440140	15.286802	9.770778
O	12.185492	12.907383	10.895548
O	9.770778	17.298637	10.895548
O	16.576746	12.907383	11.060722
O	14.162032	17.298637	11.060722
O	12.907383	10.895548	12.185492
O	9.048886	15.286802	12.185492
O	10.895548	12.185492	12.907383
O	11.060722	16.576746	12.907383
O	8.782508	8.782508	13.173762
O	13.173762	13.173762	13.173762
O	15.286802	9.770778	13.440140
O	15.451976	14.162032	13.440140
O	17.298637	11.060722	14.162032
O	13.440140	15.451976	14.162032
O	12.185492	9.048886	15.286802
O	9.770778	13.440140	15.286802
O	16.576746	9.048886	15.451976
O	14.162032	13.440140	15.451976
O	12.907383	11.060722	16.576746
O	9.048886	15.451976	16.576746
O	10.895548	9.770778	17.298637
O	11.060722	14.162032	17.298637
P	16.652558	12.261304	9.694966
P	14.086220	16.652558	9.694966
P	12.261304	12.261304	12.261304
P	9.694966	16.652558	12.261304
P	16.652558	9.694966	14.086220
P	14.086220	14.086220	14.086220
P	12.261304	9.694966	16.652558
P	9.694966	14.086220	16.652558
