40

Ag	2.013047	2.013047	2.013047
Ga	0.000000	0.000000	0.000000
O	2.013047	2.013047	0.000000
O	2.013047	0.000000	2.013047
O	0.000000	2.013047	2.013047
Ag	2.013047	2.013047	6.039140
Ga	0.000000	0.000000	4.026093
O	2.013047	2.013047	4.026093
O	2.013047	0.000000	6.039140
O	0.000000	2.013047	6.039140
Ag	2.013047	6.039140	2.013047
Ga	0.000000	4.026093	0.000000
O	2.013047	6.039140	0.000000
O	2.013047	4.026093	2.013047
O	0.000000	6.039140	2.013047
Ag	2.013047	6.039140	6.039140
Ga	0.000000	4.026093	4.026093
O	2.013047	6.039140	4.026093
O	2.013047	4.026093	6.039140
O	0.000000	6.039140	6.039140
Ag	6.039140	2.013047	2.013047
Ga	4.026093	0.000000	0.000000
O	6.039140	2.013047	0.000000
O	6.039140	0.000000	2.013047
O	4.026093	2.013047	2.013047
Ag	6.039140	2.013047	6.039140
Ga	4.026093	0.000000	4.026093
O	6.039140	2.013047	4.026093
O	6.039140	0.000000	6.039140
O	4.026093	2.013047	6.039140
Ag	6.039140	6.039140	2.013047
Ga	4.026093	4.026093	0.000000
O	6.039140	6.039140	0.000000
O	6.039140	4.026093	2.013047
O	4.026093	6.039140	2.013047
Ag	6.039140	6.039140	6.039140
Ga	4.026093	4.026093	4.026093
O	6.039140	6.039140	4.026093
O	6.039140	4.026093	6.039140
O	4.026093	6.039140	6.039140
