112

Co	0.000000	0.000000	0.000000
Co	2.316705	-2.317048	-2.317048
Dy	-1.158353	-1.158524	-3.475573
Dy	1.158352	1.158524	-3.475573
Dy	5.791773	-1.158524	-1.158524
Dy	3.475068	1.158524	-1.158524
O	3.522589	-1.110613	-1.110613
O	-1.110831	1.110613	-3.523494
O	1.110831	-1.110613	-3.523494
O	1.205884	1.206446	-1.206446
O	5.744251	1.110613	-1.110613
O	1.205884	3.427661	-3.427661
O	3.427536	3.427661	-1.206446
O	3.427536	1.206446	-3.427661
Co	4.633419	4.634101	0.000000
Co	6.950124	2.317053	-2.317048
Dy	3.475066	3.475577	-3.475573
Dy	5.791771	5.792625	-3.475573
Dy	10.425191	3.475577	-1.158524
Dy	8.108486	5.792625	-1.158524
O	8.156008	3.523488	-1.110613
O	3.522588	5.744714	-3.523494
O	5.744250	3.523489	-3.523494
O	5.839303	5.840547	-1.206446
O	10.377670	5.744714	-1.110613
O	5.839303	8.061762	-3.427661
O	8.060955	8.061762	-1.206446
O	8.060955	5.840547	-3.427661
Co	-4.633419	0.000000	-4.634101
Co	-2.316714	-2.317048	-6.951150
Dy	-5.791771	-1.158524	-8.109674
Dy	-3.475066	1.158524	-8.109674
Dy	1.158354	-1.158524	-5.792625
Dy	-1.158351	1.158524	-5.792625
O	-1.110830	-1.110613	-5.744714
O	-5.744250	1.110613	-8.157595
O	-3.522588	-1.110613	-8.157595
O	-3.427535	1.206446	-5.840547
O	1.110832	1.110613	-5.744714
O	-3.427535	3.427661	-8.061762
O	-1.205883	3.427661	-5.840547
O	-1.205883	1.206446	-8.061762
Co	0.000000	4.634101	-4.634101
Co	2.316705	2.317053	-6.951150
Dy	-1.158353	3.475577	-8.109674
Dy	1.158352	5.792625	-8.109674
Dy	5.791773	3.475577	-5.792625
Dy	3.475068	5.792625	-5.792625
O	3.522589	3.523488	-5.744714
O	-1.110831	5.744714	-8.157595
O	1.110831	3.523489	-8.157595
O	1.205884	5.840547	-5.840547
O	5.744251	5.744714	-5.744714
O	1.205884	8.061762	-8.061762
O	3.427536	8.061762	-5.840547
O	3.427536	5.840547	-8.061762
Co	4.633419	-4.634101	0.000000
Co	6.950124	-6.951150	-2.317048
Dy	3.475066	-5.792625	-3.475573
Dy	5.791771	-3.475577	-3.475573
Dy	10.425191	-5.792625	-1.158524
Dy	8.108486	-3.475577	-1.158524
O	8.156008	-5.744714	-1.110613
O	3.522588	-3.523488	-3.523494
O	5.744250	-5.744714	-3.523494
O	5.839303	-3.427656	-1.206446
O	10.377670	-3.523488	-1.110613
O	5.839303	-1.206440	-3.427661
O	8.060955	-1.206440	-1.206446
O	8.060955	-3.427656	-3.427661
Co	9.266838	0.000000	0.000000
Co	11.583543	-2.317048	-2.317048
Dy	8.108485	-1.158524	-3.475573
Dy	10.425190	1.158524	-3.475573
Dy	15.058610	-1.158524	-1.158524
Dy	12.741905	1.158524	-1.158524
O	12.789427	-1.110613	-1.110613
O	8.156007	1.110613	-3.523494
O	10.377669	-1.110613	-3.523494
O	10.472722	1.206446	-1.206446
O	15.011089	1.110613	-1.110613
O	10.472722	3.427661	-3.427661
O	12.694374	3.427661	-1.206446
O	12.694374	1.206446	-3.427661
Co	0.000000	-4.634101	-4.634101
Co	2.316705	-6.951150	-6.951150
Dy	-1.158353	-5.792625	-8.109674
Dy	1.158352	-3.475577	-8.109674
Dy	5.791773	-5.792625	-5.792625
Dy	3.475068	-3.475577	-5.792625
O	3.522589	-5.744714	-5.744714
O	-1.110831	-3.523488	-8.157595
O	1.110831	-5.744714	-8.157595
O	1.205884	-3.427656	-5.840547
O	5.744251	-3.523488	-5.744714
O	1.205884	-1.206440	-8.061762
O	3.427536	-1.206440	-5.840547
O	3.427536	-3.427656	-8.061762
Co	4.633419	0.000000	-4.634101
Co	6.950124	-2.317048	-6.951150
Dy	3.475066	-1.158524	-8.109674
Dy	5.791771	1.158524	-8.109674
Dy	10.425191	-1.158524	-5.792625
Dy	8.108486	1.158524	-5.792625
O	8.156008	-1.110613	-5.744714
O	3.522588	1.110613	-8.157595
O	5.744250	-1.110613	-8.157595
O	5.839303	1.206446	-5.840547
O	10.377670	1.110613	-5.744714
O	5.839303	3.427661	-8.061762
O	8.060955	3.427661	-5.840547
O	8.060955	1.206446	-8.061762
