264

Bi	4.914276	3.294681	1.822351
Bi	6.881765	-0.145138	-1.764732
Bi	3.237063	0.145138	-1.764732
Bi	3.294681	-1.822351	-4.914276
Bi	1.764732	3.237063	-0.145138
Bi	0.145138	1.764732	-3.237063
Bi	5.204552	3.294681	-1.822351
Bi	1.764732	6.881765	0.145138
Bi	3.294681	1.822351	-5.204552
Bi	-1.822351	4.914276	-3.294681
Bi	1.822351	5.204552	-3.294681
Bi	-0.145138	1.764732	-6.881765
Ge	0.000000	0.000000	0.000000
O	1.029554	1.029554	1.029554
O	3.077023	3.077023	3.077023
O	1.029554	-1.029554	-1.029554
O	3.077023	-3.077023	-3.077023
O	5.173254	-1.343437	-2.576872
O	-1.029554	1.029554	-1.029554
O	3.715977	2.482542	0.113840
O	6.402851	2.482542	-0.113840
O	2.482542	-0.113840	-3.715977
O	2.576872	5.173254	1.343437
O	4.945574	1.343437	-2.576872
O	1.982391	1.982391	-1.982391
O	-3.077023	3.077023	-3.077023
O	-0.113840	3.715977	-2.482542
O	2.576872	4.945574	-1.343437
O	2.482542	0.113840	-6.402851
O	1.343437	2.576872	-4.945574
O	-1.343437	2.576872	-5.173254
O	4.029860	4.029860	-4.029860
O	0.113840	6.402851	-2.482542
Bi	-0.145138	8.354095	-3.237063
Bi	1.822351	4.914276	-6.824146
Bi	-1.822351	5.204552	-6.824146
Bi	-1.764732	3.237063	-9.973690
Bi	-3.294681	8.296477	-5.204552
Bi	-4.914276	6.824146	-8.296477
Bi	0.145138	8.354095	-6.881765
Bi	-3.294681	11.941178	-4.914276
Bi	-1.764732	6.881765	-10.263966
Bi	-6.881765	9.973690	-8.354095
Bi	-3.237063	10.263966	-8.354095
Bi	-5.204552	6.824146	-11.941178
Ge	-5.059414	5.059414	-5.059414
O	-4.029860	6.088968	-4.029860
O	-1.982391	8.136437	-1.982391
O	-4.029860	4.029860	-6.088968
O	-1.982391	1.982391	-8.136437
O	0.113840	3.715977	-7.636286
O	-6.088968	6.088968	-6.088968
O	-1.343437	7.541956	-4.945574
O	1.343437	7.541956	-5.173254
O	-2.576872	4.945574	-8.775391
O	-2.482542	10.232668	-3.715977
O	-0.113840	6.402851	-7.636286
O	-3.077023	7.041805	-7.041805
O	-8.136437	8.136437	-8.136437
O	-5.173254	8.775391	-7.541956
O	-2.482542	10.004988	-6.402851
O	-2.576872	5.173254	-11.462265
O	-3.715977	7.636286	-10.004988
O	-6.402851	7.636286	-10.232668
O	-1.029554	9.089274	-9.089274
O	-4.945574	11.462265	-7.541956
Bi	9.973690	-1.764732	-3.237063
Bi	11.941178	-5.204552	-6.824146
Bi	8.296477	-4.914276	-6.824146
Bi	8.354095	-6.881765	-9.973690
Bi	6.824146	-1.822351	-5.204552
Bi	5.204552	-3.294681	-8.296477
Bi	10.263966	-1.764732	-6.881765
Bi	6.824146	1.822351	-4.914276
Bi	8.354095	-3.237063	-10.263966
Bi	3.237063	-0.145138	-8.354095
Bi	6.881765	0.145138	-8.354095
Bi	4.914276	-3.294681	-11.941178
Ge	5.059414	-5.059414	-5.059414
O	6.088968	-4.029860	-4.029860
O	8.136437	-1.982391	-1.982391
O	6.088968	-6.088968	-6.088968
O	8.136437	-8.136437	-8.136437
O	10.232668	-6.402851	-7.636286
O	4.029860	-4.029860	-6.088968
O	8.775391	-2.576872	-4.945574
O	11.462265	-2.576872	-5.173254
O	7.541956	-5.173254	-8.775391
O	7.636286	0.113840	-3.715977
O	10.004988	-3.715977	-7.636286
O	7.041805	-3.077023	-7.041805
O	1.982391	-1.982391	-8.136437
O	4.945574	-1.343437	-7.541956
O	7.636286	-0.113840	-6.402851
O	7.541956	-4.945574	-11.462265
O	6.402851	-2.482542	-10.004988
O	3.715977	-2.482542	-10.232668
O	9.089274	-1.029554	-9.089274
O	5.173254	1.343437	-7.541956
Bi	4.914276	3.294681	-8.296477
Bi	6.881765	-0.145138	-11.883560
Bi	3.237063	0.145138	-11.883560
Bi	3.294681	-1.822351	-15.033104
Bi	1.764732	3.237063	-10.263966
Bi	0.145138	1.764732	-13.355891
Bi	5.204552	3.294681	-11.941178
Bi	1.764732	6.881765	-9.973690
Bi	3.294681	1.822351	-15.323380
Bi	-1.822351	4.914276	-13.413509
Bi	1.822351	5.204552	-13.413509
Bi	-0.145138	1.764732	-17.000592
Ge	0.000000	0.000000	-10.118828
O	1.029554	1.029554	-9.089274
O	3.077023	3.077023	-7.041805
O	1.029554	-1.029554	-11.148382
O	3.077023	-3.077023	-13.195851
O	5.173254	-1.343437	-12.695700
O	-1.029554	1.029554	-11.148382
O	3.715977	2.482542	-10.004988
O	6.402851	2.482542	-10.232668
O	2.482542	-0.113840	-13.834805
O	2.576872	5.173254	-8.775391
O	4.945574	1.343437	-12.695700
O	1.982391	1.982391	-12.101219
O	-3.077023	3.077023	-13.195851
O	-0.113840	3.715977	-12.601370
O	2.576872	4.945574	-11.462265
O	2.482542	0.113840	-16.521679
O	1.343437	2.576872	-15.064401
O	-1.343437	2.576872	-15.292082
O	4.029860	4.029860	-14.148688
O	0.113840	6.402851	-12.601370
Bi	9.973690	8.354095	6.881765
Bi	11.941178	4.914276	3.294681
Bi	8.296477	5.204552	3.294681
Bi	8.354095	3.237063	0.145138
Bi	6.824146	8.296477	4.914276
Bi	5.204552	6.824146	1.822351
Bi	10.263966	8.354095	3.237063
Bi	6.824146	11.941178	5.204552
Bi	8.354095	6.881765	-0.145138
Bi	3.237063	9.973690	1.764732
Bi	6.881765	10.263966	1.764732
Bi	4.914276	6.824146	-1.822351
Ge	5.059414	5.059414	5.059414
O	6.088968	6.088968	6.088968
O	8.136437	8.136437	8.136437
O	6.088968	4.029860	4.029860
O	8.136437	1.982391	1.982391
O	10.232668	3.715977	2.482542
O	4.029860	6.088968	4.029860
O	8.775391	7.541956	5.173254
O	11.462265	7.541956	4.945574
O	7.541956	4.945574	1.343437
O	7.636286	10.232668	6.402851
O	10.004988	6.402851	2.482542
O	7.041805	7.041805	3.077023
O	1.982391	8.136437	1.982391
O	4.945574	8.775391	2.576872
O	7.636286	10.004988	3.715977
O	7.541956	5.173254	-1.343437
O	6.402851	7.636286	0.113840
O	3.715977	7.636286	-0.113840
O	9.089274	9.089274	1.029554
O	5.173254	11.462265	2.576872
Bi	4.914276	13.413509	1.822351
Bi	6.881765	9.973690	-1.764732
Bi	3.237063	10.263966	-1.764732
Bi	3.294681	8.296477	-4.914276
Bi	1.764732	13.355891	-0.145138
Bi	0.145138	11.883560	-3.237063
Bi	5.204552	13.413509	-1.822351
Bi	1.764732	17.000592	0.145138
Bi	3.294681	11.941178	-5.204552
Bi	-1.822351	15.033104	-3.294681
Bi	1.822351	15.323380	-3.294681
Bi	-0.145138	11.883560	-6.881765
Ge	0.000000	10.118828	0.000000
O	1.029554	11.148382	1.029554
O	3.077023	13.195851	3.077023
O	1.029554	9.089274	-1.029554
O	3.077023	7.041805	-3.077023
O	5.173254	8.775391	-2.576872
O	-1.029554	11.148382	-1.029554
O	3.715977	12.601370	0.113840
O	6.402851	12.601370	-0.113840
O	2.482542	10.004988	-3.715977
O	2.576872	15.292082	1.343437
O	4.945574	11.462265	-2.576872
O	1.982391	12.101219	-1.982391
O	-3.077023	13.195851	-3.077023
O	-0.113840	13.834805	-2.482542
O	2.576872	15.064401	-1.343437
O	2.482542	10.232668	-6.402851
O	1.343437	12.695700	-4.945574
O	-1.343437	12.695700	-5.173254
O	4.029860	14.148688	-4.029860
O	0.113840	16.521679	-2.482542
Bi	15.033104	3.294681	1.822351
Bi	17.000592	-0.145138	-1.764732
Bi	13.355891	0.145138	-1.764732
Bi	13.413509	-1.822351	-4.914276
Bi	11.883560	3.237063	-0.145138
Bi	10.263966	1.764732	-3.237063
Bi	15.323380	3.294681	-1.822351
Bi	11.883560	6.881765	0.145138
Bi	13.413509	1.822351	-5.204552
Bi	8.296477	4.914276	-3.294681
Bi	11.941178	5.204552	-3.294681
Bi	9.973690	1.764732	-6.881765
Ge	10.118828	0.000000	0.000000
O	11.148382	1.029554	1.029554
O	13.195851	3.077023	3.077023
O	11.148382	-1.029554	-1.029554
O	13.195851	-3.077023	-3.077023
O	15.292082	-1.343437	-2.576872
O	9.089274	1.029554	-1.029554
O	13.834805	2.482542	0.113840
O	16.521679	2.482542	-0.113840
O	12.601370	-0.113840	-3.715977
O	12.695700	5.173254	1.343437
O	15.064401	1.343437	-2.576872
O	12.101219	1.982391	-1.982391
O	7.041805	3.077023	-3.077023
O	10.004988	3.715977	-2.482542
O	12.695700	4.945574	-1.343437
O	12.601370	0.113840	-6.402851
O	11.462265	2.576872	-4.945574
O	8.775391	2.576872	-5.173254
O	14.148688	4.029860	-4.029860
O	10.232668	6.402851	-2.482542
Bi	9.973690	8.354095	-3.237063
Bi	11.941178	4.914276	-6.824146
Bi	8.296477	5.204552	-6.824146
Bi	8.354095	3.237063	-9.973690
Bi	6.824146	8.296477	-5.204552
Bi	5.204552	6.824146	-8.296477
Bi	10.263966	8.354095	-6.881765
Bi	6.824146	11.941178	-4.914276
Bi	8.354095	6.881765	-10.263966
Bi	3.237063	9.973690	-8.354095
Bi	6.881765	10.263966	-8.354095
Bi	4.914276	6.824146	-11.941178
Ge	5.059414	5.059414	-5.059414
O	6.088968	6.088968	-4.029860
O	8.136437	8.136437	-1.982391
O	6.088968	4.029860	-6.088968
O	8.136437	1.982391	-8.136437
O	10.232668	3.715977	-7.636286
O	4.029860	6.088968	-6.088968
O	8.775391	7.541956	-4.945574
O	11.462265	7.541956	-5.173254
O	7.541956	4.945574	-8.775391
O	7.636286	10.232668	-3.715977
O	10.004988	6.402851	-7.636286
O	7.041805	7.041805	-7.041805
O	1.982391	8.136437	-8.136437
O	4.945574	8.775391	-7.541956
O	7.636286	10.004988	-6.402851
O	7.541956	5.173254	-11.462265
O	6.402851	7.636286	-10.004988
O	3.715977	7.636286	-10.232668
O	9.089274	9.089274	-9.089274
O	5.173254	11.462265	-7.541956
