440

Ca	2.156627	2.236027	2.236027
Ca	4.392654	0.000000	4.392654
Ca	2.156627	6.549281	6.549281
Ca	4.392654	4.392654	0.000000
Ca	6.628681	2.236027	6.549281
Ca	0.000000	0.000000	0.000000
Ca	6.628681	6.549281	2.236027
Ga	1.078223	7.676307	3.314431
Ga	3.290455	1.102199	7.683110
Ga	3.283653	3.314431	5.470877
Ga	1.078223	1.109002	5.470877
Ga	1.078223	3.314431	7.676307
Ga	3.283653	5.470877	3.314431
Ga	3.290455	7.683110	1.102199
Ga	1.078223	5.470877	1.109002
Ga	5.494853	7.683110	7.683110
Ga	7.707085	1.109002	3.314431
Ga	7.707085	3.314431	1.109002
Ga	5.494853	1.102199	1.102199
Ga	5.501656	3.314431	3.314431
Ga	7.707085	5.470877	7.676307
Ga	7.707085	7.676307	5.470877
Ga	5.501656	5.470877	5.470877
O	3.441372	0.951282	0.951282
O	5.313558	3.448609	5.336700
O	5.343936	0.951282	7.834027
O	3.471750	3.448609	3.448609
O	3.126743	1.265912	5.639436
O	1.246781	7.519397	1.265912
O	1.246781	1.265912	7.519397
O	3.126743	7.519397	3.145873
O	3.471750	5.336700	5.336700
O	5.343936	7.834027	0.951282
O	5.313558	5.336700	3.448609
O	3.441372	7.834027	7.834027
O	3.126743	5.639436	1.265912
O	1.259275	3.133379	5.651929
O	1.259275	5.651929	3.133379
O	3.126743	3.145873	7.519397
O	7.841263	0.920904	5.336700
O	0.944045	3.448609	0.920904
O	0.944045	0.920904	3.448609
O	7.841263	3.448609	7.864404
O	7.538527	1.265912	1.265912
O	5.658566	7.519397	5.639436
O	5.658566	1.265912	3.145873
O	7.538527	7.519397	7.519397
O	7.841263	5.336700	0.920904
O	0.944045	7.864404	5.336700
O	0.944045	5.336700	7.864404
O	7.841263	7.864404	3.448609
O	7.526033	5.651929	5.651929
O	5.658566	3.145873	1.265912
O	5.658566	5.639436	7.519397
O	7.526033	3.133379	3.133379
Ca	2.156627	2.236027	11.021336
Ca	4.392654	0.000000	13.177963
Ca	2.156627	6.549281	15.334590
Ca	4.392654	4.392654	8.785308
Ca	6.628681	2.236027	15.334590
Ca	0.000000	0.000000	8.785308
Ca	6.628681	6.549281	11.021336
Ga	1.078223	7.676307	12.099739
Ga	3.290455	1.102199	16.468418
Ga	3.283653	3.314431	14.256186
Ga	1.078223	1.109002	14.256186
Ga	1.078223	3.314431	16.461615
Ga	3.283653	5.470877	12.099739
Ga	3.290455	7.683110	9.887507
Ga	1.078223	5.470877	9.894310
Ga	5.494853	7.683110	16.468418
Ga	7.707085	1.109002	12.099739
Ga	7.707085	3.314431	9.894310
Ga	5.494853	1.102199	9.887507
Ga	5.501656	3.314431	12.099739
Ga	7.707085	5.470877	16.461615
Ga	7.707085	7.676307	14.256186
Ga	5.501656	5.470877	14.256186
O	3.441372	0.951282	9.736590
O	5.313558	3.448609	14.122008
O	5.343936	0.951282	16.619335
O	3.471750	3.448609	12.233917
O	3.126743	1.265912	14.424744
O	1.246781	7.519397	10.051220
O	1.246781	1.265912	16.304705
O	3.126743	7.519397	11.931181
O	3.471750	5.336700	14.122008
O	5.343936	7.834027	9.736590
O	5.313558	5.336700	12.233917
O	3.441372	7.834027	16.619335
O	3.126743	5.639436	10.051220
O	1.259275	3.133379	14.437238
O	1.259275	5.651929	11.918687
O	3.126743	3.145873	16.304705
O	7.841263	0.920904	14.122008
O	0.944045	3.448609	9.706213
O	0.944045	0.920904	12.233917
O	7.841263	3.448609	16.649713
O	7.538527	1.265912	10.051220
O	5.658566	7.519397	14.424744
O	5.658566	1.265912	11.931181
O	7.538527	7.519397	16.304705
O	7.841263	5.336700	9.706213
O	0.944045	7.864404	14.122008
O	0.944045	5.336700	16.649713
O	7.841263	7.864404	12.233917
O	7.526033	5.651929	14.437238
O	5.658566	3.145873	10.051220
O	5.658566	5.639436	16.304705
O	7.526033	3.133379	11.918687
Ca	2.156627	11.021336	2.236027
Ca	4.392654	8.785308	4.392654
Ca	2.156627	15.334590	6.549281
Ca	4.392654	13.177963	0.000000
Ca	6.628681	11.021336	6.549281
Ca	0.000000	8.785308	0.000000
Ca	6.628681	15.334590	2.236027
Ga	1.078223	16.461615	3.314431
Ga	3.290455	9.887507	7.683110
Ga	3.283653	12.099739	5.470877
Ga	1.078223	9.894310	5.470877
Ga	1.078223	12.099739	7.676307
Ga	3.283653	14.256186	3.314431
Ga	3.290455	16.468418	1.102199
Ga	1.078223	14.256186	1.109002
Ga	5.494853	16.468418	7.683110
Ga	7.707085	9.894310	3.314431
Ga	7.707085	12.099739	1.109002
Ga	5.494853	9.887507	1.102199
Ga	5.501656	12.099739	3.314431
Ga	7.707085	14.256186	7.676307
Ga	7.707085	16.461615	5.470877
Ga	5.501656	14.256186	5.470877
O	3.441372	9.736590	0.951282
O	5.313558	12.233917	5.336700
O	5.343936	9.736590	7.834027
O	3.471750	12.233917	3.448609
O	3.126743	10.051220	5.639436
O	1.246781	16.304705	1.265912
O	1.246781	10.051220	7.519397
O	3.126743	16.304705	3.145873
O	3.471750	14.122008	5.336700
O	5.343936	16.619335	0.951282
O	5.313558	14.122008	3.448609
O	3.441372	16.619335	7.834027
O	3.126743	14.424744	1.265912
O	1.259275	11.918687	5.651929
O	1.259275	14.437238	3.133379
O	3.126743	11.931181	7.519397
O	7.841263	9.706213	5.336700
O	0.944045	12.233917	0.920904
O	0.944045	9.706213	3.448609
O	7.841263	12.233917	7.864404
O	7.538527	10.051220	1.265912
O	5.658566	16.304705	5.639436
O	5.658566	10.051220	3.145873
O	7.538527	16.304705	7.519397
O	7.841263	14.122008	0.920904
O	0.944045	16.649713	5.336700
O	0.944045	14.122008	7.864404
O	7.841263	16.649713	3.448609
O	7.526033	14.437238	5.651929
O	5.658566	11.931181	1.265912
O	5.658566	14.424744	7.519397
O	7.526033	11.918687	3.133379
Ca	2.156627	11.021336	11.021336
Ca	4.392654	8.785308	13.177963
Ca	2.156627	15.334590	15.334590
Ca	4.392654	13.177963	8.785308
Ca	6.628681	11.021336	15.334590
Ca	0.000000	8.785308	8.785308
Ca	6.628681	15.334590	11.021336
Ga	1.078223	16.461615	12.099739
Ga	3.290455	9.887507	16.468418
Ga	3.283653	12.099739	14.256186
Ga	1.078223	9.894310	14.256186
Ga	1.078223	12.099739	16.461615
Ga	3.283653	14.256186	12.099739
Ga	3.290455	16.468418	9.887507
Ga	1.078223	14.256186	9.894310
Ga	5.494853	16.468418	16.468418
Ga	7.707085	9.894310	12.099739
Ga	7.707085	12.099739	9.894310
Ga	5.494853	9.887507	9.887507
Ga	5.501656	12.099739	12.099739
Ga	7.707085	14.256186	16.461615
Ga	7.707085	16.461615	14.256186
Ga	5.501656	14.256186	14.256186
O	3.441372	9.736590	9.736590
O	5.313558	12.233917	14.122008
O	5.343936	9.736590	16.619335
O	3.471750	12.233917	12.233917
O	3.126743	10.051220	14.424744
O	1.246781	16.304705	10.051220
O	1.246781	10.051220	16.304705
O	3.126743	16.304705	11.931181
O	3.471750	14.122008	14.122008
O	5.343936	16.619335	9.736590
O	5.313558	14.122008	12.233917
O	3.441372	16.619335	16.619335
O	3.126743	14.424744	10.051220
O	1.259275	11.918687	14.437238
O	1.259275	14.437238	11.918687
O	3.126743	11.931181	16.304705
O	7.841263	9.706213	14.122008
O	0.944045	12.233917	9.706213
O	0.944045	9.706213	12.233917
O	7.841263	12.233917	16.649713
O	7.538527	10.051220	10.051220
O	5.658566	16.304705	14.424744
O	5.658566	10.051220	11.931181
O	7.538527	16.304705	16.304705
O	7.841263	14.122008	9.706213
O	0.944045	16.649713	14.122008
O	0.944045	14.122008	16.649713
O	7.841263	16.649713	12.233917
O	7.526033	14.437238	14.437238
O	5.658566	11.931181	10.051220
O	5.658566	14.424744	16.304705
O	7.526033	11.918687	11.918687
Ca	10.941935	2.236027	2.236027
Ca	13.177963	0.000000	4.392654
Ca	10.941935	6.549281	6.549281
Ca	13.177963	4.392654	0.000000
Ca	15.413990	2.236027	6.549281
Ca	8.785308	0.000000	0.000000
Ca	15.413990	6.549281	2.236027
Ga	9.863531	7.676307	3.314431
Ga	12.075764	1.102199	7.683110
Ga	12.068961	3.314431	5.470877
Ga	9.863531	1.109002	5.470877
Ga	9.863531	3.314431	7.676307
Ga	12.068961	5.470877	3.314431
Ga	12.075764	7.683110	1.102199
Ga	9.863531	5.470877	1.109002
Ga	14.280161	7.683110	7.683110
Ga	16.492394	1.109002	3.314431
Ga	16.492394	3.314431	1.109002
Ga	14.280161	1.102199	1.102199
Ga	14.286964	3.314431	3.314431
Ga	16.492394	5.470877	7.676307
Ga	16.492394	7.676307	5.470877
Ga	14.286964	5.470877	5.470877
O	12.226681	0.951282	0.951282
O	14.098867	3.448609	5.336700
O	14.129244	0.951282	7.834027
O	12.257058	3.448609	3.448609
O	11.912051	1.265912	5.639436
O	10.032090	7.519397	1.265912
O	10.032090	1.265912	7.519397
O	11.912051	7.519397	3.145873
O	12.257058	5.336700	5.336700
O	14.129244	7.834027	0.951282
O	14.098867	5.336700	3.448609
O	12.226681	7.834027	7.834027
O	11.912051	5.639436	1.265912
O	10.044584	3.133379	5.651929
O	10.044584	5.651929	3.133379
O	11.912051	3.145873	7.519397
O	16.626571	0.920904	5.336700
O	9.729354	3.448609	0.920904
O	9.729354	0.920904	3.448609
O	16.626571	3.448609	7.864404
O	16.323835	1.265912	1.265912
O	14.443874	7.519397	5.639436
O	14.443874	1.265912	3.145873
O	16.323835	7.519397	7.519397
O	16.626571	5.336700	0.920904
O	9.729354	7.864404	5.336700
O	9.729354	5.336700	7.864404
O	16.626571	7.864404	3.448609
O	16.311342	5.651929	5.651929
O	14.443874	3.145873	1.265912
O	14.443874	5.639436	7.519397
O	16.311342	3.133379	3.133379
Ca	10.941935	2.236027	11.021336
Ca	13.177963	0.000000	13.177963
Ca	10.941935	6.549281	15.334590
Ca	13.177963	4.392654	8.785308
Ca	15.413990	2.236027	15.334590
Ca	8.785308	0.000000	8.785308
Ca	15.413990	6.549281	11.021336
Ga	9.863531	7.676307	12.099739
Ga	12.075764	1.102199	16.468418
Ga	12.068961	3.314431	14.256186
Ga	9.863531	1.109002	14.256186
Ga	9.863531	3.314431	16.461615
Ga	12.068961	5.470877	12.099739
Ga	12.075764	7.683110	9.887507
Ga	9.863531	5.470877	9.894310
Ga	14.280161	7.683110	16.468418
Ga	16.492394	1.109002	12.099739
Ga	16.492394	3.314431	9.894310
Ga	14.280161	1.102199	9.887507
Ga	14.286964	3.314431	12.099739
Ga	16.492394	5.470877	16.461615
Ga	16.492394	7.676307	14.256186
Ga	14.286964	5.470877	14.256186
O	12.226681	0.951282	9.736590
O	14.098867	3.448609	14.122008
O	14.129244	0.951282	16.619335
O	12.257058	3.448609	12.233917
O	11.912051	1.265912	14.424744
O	10.032090	7.519397	10.051220
O	10.032090	1.265912	16.304705
O	11.912051	7.519397	11.931181
O	12.257058	5.336700	14.122008
O	14.129244	7.834027	9.736590
O	14.098867	5.336700	12.233917
O	12.226681	7.834027	16.619335
O	11.912051	5.639436	10.051220
O	10.044584	3.133379	14.437238
O	10.044584	5.651929	11.918687
O	11.912051	3.145873	16.304705
O	16.626571	0.920904	14.122008
O	9.729354	3.448609	9.706213
O	9.729354	0.920904	12.233917
O	16.626571	3.448609	16.649713
O	16.323835	1.265912	10.051220
O	14.443874	7.519397	14.424744
O	14.443874	1.265912	11.931181
O	16.323835	7.519397	16.304705
O	16.626571	5.336700	9.706213
O	9.729354	7.864404	14.122008
O	9.729354	5.336700	16.649713
O	16.626571	7.864404	12.233917
O	16.311342	5.651929	14.437238
O	14.443874	3.145873	10.051220
O	14.443874	5.639436	16.304705
O	16.311342	3.133379	11.918687
Ca	10.941935	11.021336	2.236027
Ca	13.177963	8.785308	4.392654
Ca	10.941935	15.334590	6.549281
Ca	13.177963	13.177963	0.000000
Ca	15.413990	11.021336	6.549281
Ca	8.785308	8.785308	0.000000
Ca	15.413990	15.334590	2.236027
Ga	9.863531	16.461615	3.314431
Ga	12.075764	9.887507	7.683110
Ga	12.068961	12.099739	5.470877
Ga	9.863531	9.894310	5.470877
Ga	9.863531	12.099739	7.676307
Ga	12.068961	14.256186	3.314431
Ga	12.075764	16.468418	1.102199
Ga	9.863531	14.256186	1.109002
Ga	14.280161	16.468418	7.683110
Ga	16.492394	9.894310	3.314431
Ga	16.492394	12.099739	1.109002
Ga	14.280161	9.887507	1.102199
Ga	14.286964	12.099739	3.314431
Ga	16.492394	14.256186	7.676307
Ga	16.492394	16.461615	5.470877
Ga	14.286964	14.256186	5.470877
O	12.226681	9.736590	0.951282
O	14.098867	12.233917	5.336700
O	14.129244	9.736590	7.834027
O	12.257058	12.233917	3.448609
O	11.912051	10.051220	5.639436
O	10.032090	16.304705	1.265912
O	10.032090	10.051220	7.519397
O	11.912051	16.304705	3.145873
O	12.257058	14.122008	5.336700
O	14.129244	16.619335	0.951282
O	14.098867	14.122008	3.448609
O	12.226681	16.619335	7.834027
O	11.912051	14.424744	1.265912
O	10.044584	11.918687	5.651929
O	10.044584	14.437238	3.133379
O	11.912051	11.931181	7.519397
O	16.626571	9.706213	5.336700
O	9.729354	12.233917	0.920904
O	9.729354	9.706213	3.448609
O	16.626571	12.233917	7.864404
O	16.323835	10.051220	1.265912
O	14.443874	16.304705	5.639436
O	14.443874	10.051220	3.145873
O	16.323835	16.304705	7.519397
O	16.626571	14.122008	0.920904
O	9.729354	16.649713	5.336700
O	9.729354	14.122008	7.864404
O	16.626571	16.649713	3.448609
O	16.311342	14.437238	5.651929
O	14.443874	11.931181	1.265912
O	14.443874	14.424744	7.519397
O	16.311342	11.918687	3.133379
Ca	10.941935	11.021336	11.021336
Ca	13.177963	8.785308	13.177963
Ca	10.941935	15.334590	15.334590
Ca	13.177963	13.177963	8.785308
Ca	15.413990	11.021336	15.334590
Ca	8.785308	8.785308	8.785308
Ca	15.413990	15.334590	11.021336
Ga	9.863531	16.461615	12.099739
Ga	12.075764	9.887507	16.468418
Ga	12.068961	12.099739	14.256186
Ga	9.863531	9.894310	14.256186
Ga	9.863531	12.099739	16.461615
Ga	12.068961	14.256186	12.099739
Ga	12.075764	16.468418	9.887507
Ga	9.863531	14.256186	9.894310
Ga	14.280161	16.468418	16.468418
Ga	16.492394	9.894310	12.099739
Ga	16.492394	12.099739	9.894310
Ga	14.280161	9.887507	9.887507
Ga	14.286964	12.099739	12.099739
Ga	16.492394	14.256186	16.461615
Ga	16.492394	16.461615	14.256186
Ga	14.286964	14.256186	14.256186
O	12.226681	9.736590	9.736590
O	14.098867	12.233917	14.122008
O	14.129244	9.736590	16.619335
O	12.257058	12.233917	12.233917
O	11.912051	10.051220	14.424744
O	10.032090	16.304705	10.051220
O	10.032090	10.051220	16.304705
O	11.912051	16.304705	11.931181
O	12.257058	14.122008	14.122008
O	14.129244	16.619335	9.736590
O	14.098867	14.122008	12.233917
O	12.226681	16.619335	16.619335
O	11.912051	14.424744	10.051220
O	10.044584	11.918687	14.437238
O	10.044584	14.437238	11.918687
O	11.912051	11.931181	16.304705
O	16.626571	9.706213	14.122008
O	9.729354	12.233917	9.706213
O	9.729354	9.706213	12.233917
O	16.626571	12.233917	16.649713
O	16.323835	10.051220	10.051220
O	14.443874	16.304705	14.424744
O	14.443874	10.051220	11.931181
O	16.323835	16.304705	16.304705
O	16.626571	14.122008	9.706213
O	9.729354	16.649713	14.122008
O	9.729354	14.122008	16.649713
O	16.626571	16.649713	12.233917
O	16.311342	14.437238	14.437238
O	14.443874	11.931181	10.051220
O	14.443874	14.424744	16.304705
O	16.311342	11.918687	11.918687
