40

Ge	1.886910	1.886910	1.886910
O	1.886910	1.886910	0.000000
O	0.000000	1.886910	1.886910
O	1.886910	0.000000	1.886910
Tc	0.000000	0.000000	0.000000
Ge	1.886910	1.886910	5.660731
O	1.886910	1.886910	3.773821
O	0.000000	1.886910	5.660731
O	1.886910	0.000000	5.660731
Tc	0.000000	0.000000	3.773821
Ge	1.886910	5.660731	1.886910
O	1.886910	5.660731	0.000000
O	0.000000	5.660731	1.886910
O	1.886910	3.773821	1.886910
Tc	0.000000	3.773821	0.000000
Ge	1.886910	5.660731	5.660731
O	1.886910	5.660731	3.773821
O	0.000000	5.660731	5.660731
O	1.886910	3.773821	5.660731
Tc	0.000000	3.773821	3.773821
Ge	5.660731	1.886910	1.886910
O	5.660731	1.886910	0.000000
O	3.773821	1.886910	1.886910
O	5.660731	0.000000	1.886910
Tc	3.773821	0.000000	0.000000
Ge	5.660731	1.886910	5.660731
O	5.660731	1.886910	3.773821
O	3.773821	1.886910	5.660731
O	5.660731	0.000000	5.660731
Tc	3.773821	0.000000	3.773821
Ge	5.660731	5.660731	1.886910
O	5.660731	5.660731	0.000000
O	3.773821	5.660731	1.886910
O	5.660731	3.773821	1.886910
Tc	3.773821	3.773821	0.000000
Ge	5.660731	5.660731	5.660731
O	5.660731	5.660731	3.773821
O	3.773821	5.660731	5.660731
O	5.660731	3.773821	5.660731
Tc	3.773821	3.773821	3.773821
