440

Na	2.399525	2.451732	2.451732
Na	4.851257	0.000000	4.851257
Na	2.399525	7.250783	7.250783
Na	4.851257	4.851257	0.000000
Na	7.302990	2.451732	7.250783
Na	0.000000	0.000000	0.000000
Na	7.302990	7.250783	2.451732
Er	1.210421	8.522800	3.640836
Er	3.644262	1.206996	8.495519
Er	3.671542	3.640836	6.061678
Er	1.210421	1.179715	6.061678
Er	1.210421	3.640836	8.522800
Er	3.671542	6.061678	3.640836
Er	3.644262	8.495519	1.206996
Er	1.210421	6.061678	1.179715
Er	6.058253	8.495519	8.495519
Er	8.492094	1.179715	3.640836
Er	8.492094	3.640836	1.179715
Er	6.058253	1.206996	1.206996
Er	6.030972	3.640836	3.640836
Er	8.492094	6.061678	8.522800
Er	8.492094	8.522800	6.061678
Er	6.030972	6.061678	6.061678
O	3.814071	1.037186	1.037186
O	5.892360	3.816341	5.886173
O	5.888444	1.037186	8.665328
O	3.810155	3.816341	3.816341
O	3.459139	1.392118	6.237623
O	1.386366	8.310396	1.392118
O	1.386366	1.392118	8.310396
O	3.459139	8.310396	3.464892
O	3.810155	5.886173	5.886173
O	5.888444	8.665328	1.037186
O	5.892360	5.886173	3.816341
O	3.814071	8.665328	8.665328
O	3.459139	6.237623	1.392118
O	1.449256	3.402001	6.300514
O	1.449256	6.300514	3.402001
O	3.459139	3.464892	8.310396
O	8.667599	1.041103	5.886173
O	1.034916	3.816341	1.041103
O	1.034916	1.041103	3.816341
O	8.667599	3.816341	8.661412
O	8.316149	1.392118	1.392118
O	6.243376	8.310396	6.237623
O	6.243376	1.392118	3.464892
O	8.316149	8.310396	8.310396
O	8.667599	5.886173	1.041103
O	1.034916	8.661412	5.886173
O	1.034916	5.886173	8.661412
O	8.667599	8.661412	3.816341
O	8.253258	6.300514	6.300514
O	6.243376	3.464892	1.392118
O	6.243376	6.237623	8.310396
O	8.253258	3.402001	3.402001
Na	2.399525	2.451732	12.154247
Na	4.851257	0.000000	14.553772
Na	2.399525	7.250783	16.953297
Na	4.851257	4.851257	9.702515
Na	7.302990	2.451732	16.953297
Na	0.000000	0.000000	9.702515
Na	7.302990	7.250783	12.154247
Er	1.210421	8.522800	13.343351
Er	3.644262	1.206996	18.198034
Er	3.671542	3.640836	15.764193
Er	1.210421	1.179715	15.764193
Er	1.210421	3.640836	18.225314
Er	3.671542	6.061678	13.343351
Er	3.644262	8.495519	10.909510
Er	1.210421	6.061678	10.882230
Er	6.058253	8.495519	18.198034
Er	8.492094	1.179715	13.343351
Er	8.492094	3.640836	10.882230
Er	6.058253	1.206996	10.909510
Er	6.030972	3.640836	13.343351
Er	8.492094	6.061678	18.225314
Er	8.492094	8.522800	15.764193
Er	6.030972	6.061678	15.764193
O	3.814071	1.037186	10.739701
O	5.892360	3.816341	15.588688
O	5.888444	1.037186	18.367843
O	3.810155	3.816341	13.518856
O	3.459139	1.392118	15.940138
O	1.386366	8.310396	11.094633
O	1.386366	1.392118	18.012911
O	3.459139	8.310396	13.167406
O	3.810155	5.886173	15.588688
O	5.888444	8.665328	10.739701
O	5.892360	5.886173	13.518856
O	3.814071	8.665328	18.367843
O	3.459139	6.237623	11.094633
O	1.449256	3.402001	16.003028
O	1.449256	6.300514	13.104516
O	3.459139	3.464892	18.012911
O	8.667599	1.041103	15.588688
O	1.034916	3.816341	10.743617
O	1.034916	1.041103	13.518856
O	8.667599	3.816341	18.363927
O	8.316149	1.392118	11.094633
O	6.243376	8.310396	15.940138
O	6.243376	1.392118	13.167406
O	8.316149	8.310396	18.012911
O	8.667599	5.886173	10.743617
O	1.034916	8.661412	15.588688
O	1.034916	5.886173	18.363927
O	8.667599	8.661412	13.518856
O	8.253258	6.300514	16.003028
O	6.243376	3.464892	11.094633
O	6.243376	6.237623	18.012911
O	8.253258	3.402001	13.104516
Na	2.399525	12.154247	2.451732
Na	4.851257	9.702515	4.851257
Na	2.399525	16.953297	7.250783
Na	4.851257	14.553772	0.000000
Na	7.302990	12.154247	7.250783
Na	0.000000	9.702515	0.000000
Na	7.302990	16.953297	2.451732
Er	1.210421	18.225314	3.640836
Er	3.644262	10.909510	8.495519
Er	3.671542	13.343351	6.061678
Er	1.210421	10.882230	6.061678
Er	1.210421	13.343351	8.522800
Er	3.671542	15.764193	3.640836
Er	3.644262	18.198034	1.206996
Er	1.210421	15.764193	1.179715
Er	6.058253	18.198034	8.495519
Er	8.492094	10.882230	3.640836
Er	8.492094	13.343351	1.179715
Er	6.058253	10.909510	1.206996
Er	6.030972	13.343351	3.640836
Er	8.492094	15.764193	8.522800
Er	8.492094	18.225314	6.061678
Er	6.030972	15.764193	6.061678
O	3.814071	10.739701	1.037186
O	5.892360	13.518856	5.886173
O	5.888444	10.739701	8.665328
O	3.810155	13.518856	3.816341
O	3.459139	11.094633	6.237623
O	1.386366	18.012911	1.392118
O	1.386366	11.094633	8.310396
O	3.459139	18.012911	3.464892
O	3.810155	15.588688	5.886173
O	5.888444	18.367843	1.037186
O	5.892360	15.588688	3.816341
O	3.814071	18.367843	8.665328
O	3.459139	15.940138	1.392118
O	1.449256	13.104516	6.300514
O	1.449256	16.003028	3.402001
O	3.459139	13.167406	8.310396
O	8.667599	10.743617	5.886173
O	1.034916	13.518856	1.041103
O	1.034916	10.743617	3.816341
O	8.667599	13.518856	8.661412
O	8.316149	11.094633	1.392118
O	6.243376	18.012911	6.237623
O	6.243376	11.094633	3.464892
O	8.316149	18.012911	8.310396
O	8.667599	15.588688	1.041103
O	1.034916	18.363927	5.886173
O	1.034916	15.588688	8.661412
O	8.667599	18.363927	3.816341
O	8.253258	16.003028	6.300514
O	6.243376	13.167406	1.392118
O	6.243376	15.940138	8.310396
O	8.253258	13.104516	3.402001
Na	2.399525	12.154247	12.154247
Na	4.851257	9.702515	14.553772
Na	2.399525	16.953297	16.953297
Na	4.851257	14.553772	9.702515
Na	7.302990	12.154247	16.953297
Na	0.000000	9.702515	9.702515
Na	7.302990	16.953297	12.154247
Er	1.210421	18.225314	13.343351
Er	3.644262	10.909510	18.198034
Er	3.671542	13.343351	15.764193
Er	1.210421	10.882230	15.764193
Er	1.210421	13.343351	18.225314
Er	3.671542	15.764193	13.343351
Er	3.644262	18.198034	10.909510
Er	1.210421	15.764193	10.882230
Er	6.058253	18.198034	18.198034
Er	8.492094	10.882230	13.343351
Er	8.492094	13.343351	10.882230
Er	6.058253	10.909510	10.909510
Er	6.030972	13.343351	13.343351
Er	8.492094	15.764193	18.225314
Er	8.492094	18.225314	15.764193
Er	6.030972	15.764193	15.764193
O	3.814071	10.739701	10.739701
O	5.892360	13.518856	15.588688
O	5.888444	10.739701	18.367843
O	3.810155	13.518856	13.518856
O	3.459139	11.094633	15.940138
O	1.386366	18.012911	11.094633
O	1.386366	11.094633	18.012911
O	3.459139	18.012911	13.167406
O	3.810155	15.588688	15.588688
O	5.888444	18.367843	10.739701
O	5.892360	15.588688	13.518856
O	3.814071	18.367843	18.367843
O	3.459139	15.940138	11.094633
O	1.449256	13.104516	16.003028
O	1.449256	16.003028	13.104516
O	3.459139	13.167406	18.012911
O	8.667599	10.743617	15.588688
O	1.034916	13.518856	10.743617
O	1.034916	10.743617	13.518856
O	8.667599	13.518856	18.363927
O	8.316149	11.094633	11.094633
O	6.243376	18.012911	15.940138
O	6.243376	11.094633	13.167406
O	8.316149	18.012911	18.012911
O	8.667599	15.588688	10.743617
O	1.034916	18.363927	15.588688
O	1.034916	15.588688	18.363927
O	8.667599	18.363927	13.518856
O	8.253258	16.003028	16.003028
O	6.243376	13.167406	11.094633
O	6.243376	15.940138	18.012911
O	8.253258	13.104516	13.104516
Na	12.102040	2.451732	2.451732
Na	14.553772	0.000000	4.851257
Na	12.102040	7.250783	7.250783
Na	14.553772	4.851257	0.000000
Na	17.005504	2.451732	7.250783
Na	9.702515	0.000000	0.000000
Na	17.005504	7.250783	2.451732
Er	10.912936	8.522800	3.640836
Er	13.346776	1.206996	8.495519
Er	13.374057	3.640836	6.061678
Er	10.912936	1.179715	6.061678
Er	10.912936	3.640836	8.522800
Er	13.374057	6.061678	3.640836
Er	13.346776	8.495519	1.206996
Er	10.912936	6.061678	1.179715
Er	15.760768	8.495519	8.495519
Er	18.194608	1.179715	3.640836
Er	18.194608	3.640836	1.179715
Er	15.760768	1.206996	1.206996
Er	15.733487	3.640836	3.640836
Er	18.194608	6.061678	8.522800
Er	18.194608	8.522800	6.061678
Er	15.733487	6.061678	6.061678
O	13.516586	1.037186	1.037186
O	15.594875	3.816341	5.886173
O	15.590958	1.037186	8.665328
O	13.512669	3.816341	3.816341
O	13.161654	1.392118	6.237623
O	11.088880	8.310396	1.392118
O	11.088880	1.392118	8.310396
O	13.161654	8.310396	3.464892
O	13.512669	5.886173	5.886173
O	15.590958	8.665328	1.037186
O	15.594875	5.886173	3.816341
O	13.516586	8.665328	8.665328
O	13.161654	6.237623	1.392118
O	11.151771	3.402001	6.300514
O	11.151771	6.300514	3.402001
O	13.161654	3.464892	8.310396
O	18.370113	1.041103	5.886173
O	10.737431	3.816341	1.041103
O	10.737431	1.041103	3.816341
O	18.370113	3.816341	8.661412
O	18.018664	1.392118	1.392118
O	15.945890	8.310396	6.237623
O	15.945890	1.392118	3.464892
O	18.018664	8.310396	8.310396
O	18.370113	5.886173	1.041103
O	10.737431	8.661412	5.886173
O	10.737431	5.886173	8.661412
O	18.370113	8.661412	3.816341
O	17.955773	6.300514	6.300514
O	15.945890	3.464892	1.392118
O	15.945890	6.237623	8.310396
O	17.955773	3.402001	3.402001
Na	12.102040	2.451732	12.154247
Na	14.553772	0.000000	14.553772
Na	12.102040	7.250783	16.953297
Na	14.553772	4.851257	9.702515
Na	17.005504	2.451732	16.953297
Na	9.702515	0.000000	9.702515
Na	17.005504	7.250783	12.154247
Er	10.912936	8.522800	13.343351
Er	13.346776	1.206996	18.198034
Er	13.374057	3.640836	15.764193
Er	10.912936	1.179715	15.764193
Er	10.912936	3.640836	18.225314
Er	13.374057	6.061678	13.343351
Er	13.346776	8.495519	10.909510
Er	10.912936	6.061678	10.882230
Er	15.760768	8.495519	18.198034
Er	18.194608	1.179715	13.343351
Er	18.194608	3.640836	10.882230
Er	15.760768	1.206996	10.909510
Er	15.733487	3.640836	13.343351
Er	18.194608	6.061678	18.225314
Er	18.194608	8.522800	15.764193
Er	15.733487	6.061678	15.764193
O	13.516586	1.037186	10.739701
O	15.594875	3.816341	15.588688
O	15.590958	1.037186	18.367843
O	13.512669	3.816341	13.518856
O	13.161654	1.392118	15.940138
O	11.088880	8.310396	11.094633
O	11.088880	1.392118	18.012911
O	13.161654	8.310396	13.167406
O	13.512669	5.886173	15.588688
O	15.590958	8.665328	10.739701
O	15.594875	5.886173	13.518856
O	13.516586	8.665328	18.367843
O	13.161654	6.237623	11.094633
O	11.151771	3.402001	16.003028
O	11.151771	6.300514	13.104516
O	13.161654	3.464892	18.012911
O	18.370113	1.041103	15.588688
O	10.737431	3.816341	10.743617
O	10.737431	1.041103	13.518856
O	18.370113	3.816341	18.363927
O	18.018664	1.392118	11.094633
O	15.945890	8.310396	15.940138
O	15.945890	1.392118	13.167406
O	18.018664	8.310396	18.012911
O	18.370113	5.886173	10.743617
O	10.737431	8.661412	15.588688
O	10.737431	5.886173	18.363927
O	18.370113	8.661412	13.518856
O	17.955773	6.300514	16.003028
O	15.945890	3.464892	11.094633
O	15.945890	6.237623	18.012911
O	17.955773	3.402001	13.104516
Na	12.102040	12.154247	2.451732
Na	14.553772	9.702515	4.851257
Na	12.102040	16.953297	7.250783
Na	14.553772	14.553772	0.000000
Na	17.005504	12.154247	7.250783
Na	9.702515	9.702515	0.000000
Na	17.005504	16.953297	2.451732
Er	10.912936	18.225314	3.640836
Er	13.346776	10.909510	8.495519
Er	13.374057	13.343351	6.061678
Er	10.912936	10.882230	6.061678
Er	10.912936	13.343351	8.522800
Er	13.374057	15.764193	3.640836
Er	13.346776	18.198034	1.206996
Er	10.912936	15.764193	1.179715
Er	15.760768	18.198034	8.495519
Er	18.194608	10.882230	3.640836
Er	18.194608	13.343351	1.179715
Er	15.760768	10.909510	1.206996
Er	15.733487	13.343351	3.640836
Er	18.194608	15.764193	8.522800
Er	18.194608	18.225314	6.061678
Er	15.733487	15.764193	6.061678
O	13.516586	10.739701	1.037186
O	15.594875	13.518856	5.886173
O	15.590958	10.739701	8.665328
O	13.512669	13.518856	3.816341
O	13.161654	11.094633	6.237623
O	11.088880	18.012911	1.392118
O	11.088880	11.094633	8.310396
O	13.161654	18.012911	3.464892
O	13.512669	15.588688	5.886173
O	15.590958	18.367843	1.037186
O	15.594875	15.588688	3.816341
O	13.516586	18.367843	8.665328
O	13.161654	15.940138	1.392118
O	11.151771	13.104516	6.300514
O	11.151771	16.003028	3.402001
O	13.161654	13.167406	8.310396
O	18.370113	10.743617	5.886173
O	10.737431	13.518856	1.041103
O	10.737431	10.743617	3.816341
O	18.370113	13.518856	8.661412
O	18.018664	11.094633	1.392118
O	15.945890	18.012911	6.237623
O	15.945890	11.094633	3.464892
O	18.018664	18.012911	8.310396
O	18.370113	15.588688	1.041103
O	10.737431	18.363927	5.886173
O	10.737431	15.588688	8.661412
O	18.370113	18.363927	3.816341
O	17.955773	16.003028	6.300514
O	15.945890	13.167406	1.392118
O	15.945890	15.940138	8.310396
O	17.955773	13.104516	3.402001
Na	12.102040	12.154247	12.154247
Na	14.553772	9.702515	14.553772
Na	12.102040	16.953297	16.953297
Na	14.553772	14.553772	9.702515
Na	17.005504	12.154247	16.953297
Na	9.702515	9.702515	9.702515
Na	17.005504	16.953297	12.154247
Er	10.912936	18.225314	13.343351
Er	13.346776	10.909510	18.198034
Er	13.374057	13.343351	15.764193
Er	10.912936	10.882230	15.764193
Er	10.912936	13.343351	18.225314
Er	13.374057	15.764193	13.343351
Er	13.346776	18.198034	10.909510
Er	10.912936	15.764193	10.882230
Er	15.760768	18.198034	18.198034
Er	18.194608	10.882230	13.343351
Er	18.194608	13.343351	10.882230
Er	15.760768	10.909510	10.909510
Er	15.733487	13.343351	13.343351
Er	18.194608	15.764193	18.225314
Er	18.194608	18.225314	15.764193
Er	15.733487	15.764193	15.764193
O	13.516586	10.739701	10.739701
O	15.594875	13.518856	15.588688
O	15.590958	10.739701	18.367843
O	13.512669	13.518856	13.518856
O	13.161654	11.094633	15.940138
O	11.088880	18.012911	11.094633
O	11.088880	11.094633	18.012911
O	13.161654	18.012911	13.167406
O	13.512669	15.588688	15.588688
O	15.590958	18.367843	10.739701
O	15.594875	15.588688	13.518856
O	13.516586	18.367843	18.367843
O	13.161654	15.940138	11.094633
O	11.151771	13.104516	16.003028
O	11.151771	16.003028	13.104516
O	13.161654	13.167406	18.012911
O	18.370113	10.743617	15.588688
O	10.737431	13.518856	10.743617
O	10.737431	10.743617	13.518856
O	18.370113	13.518856	18.363927
O	18.018664	11.094633	11.094633
O	15.945890	18.012911	15.940138
O	15.945890	11.094633	13.167406
O	18.018664	18.012911	18.012911
O	18.370113	15.588688	10.743617
O	10.737431	18.363927	15.588688
O	10.737431	15.588688	18.363927
O	18.370113	18.363927	13.518856
O	17.955773	16.003028	16.003028
O	15.945890	13.167406	11.094633
O	15.945890	15.940138	18.012911
O	17.955773	13.104516	13.104516
