112

Ca	0.000000	0.000000	0.000000
Ca	2.169880	-2.169710	-2.169710
Ni	-1.084940	-1.084855	-3.254565
Ni	3.254820	1.084855	-1.084855
Ni	5.424700	-1.084855	-1.084855
Ni	1.084940	1.084855	-3.254565
O	3.425474	-0.913067	-0.913067
O	-0.914286	0.913067	-3.426352
O	0.914286	-0.913067	-3.426352
O	1.255594	1.256642	-1.256642
O	5.254046	0.913067	-0.913067
O	1.255594	3.082777	-3.082777
O	3.084166	3.082777	-1.256642
O	3.084166	1.256642	-3.082777
Ca	4.339760	4.339419	0.000000
Ca	6.509640	2.169710	-2.169710
Ni	3.254820	3.254565	-3.254565
Ni	7.594579	5.424274	-1.084855
Ni	9.764459	3.254565	-1.084855
Ni	5.424700	5.424274	-3.254565
O	7.765233	3.426352	-0.913067
O	3.425474	5.252487	-3.426352
O	5.254046	3.426352	-3.426352
O	5.595354	5.596062	-1.256642
O	9.593805	5.252487	-0.913067
O	5.595354	7.422197	-3.082777
O	7.423925	7.422197	-1.256642
O	7.423925	5.596062	-3.082777
Ca	-4.339760	0.000000	-4.339419
Ca	-2.169880	-2.169710	-6.509129
Ni	-5.424700	-1.084855	-7.593984
Ni	-1.084940	1.084855	-5.424274
Ni	1.084940	-1.084855	-5.424274
Ni	-3.254820	1.084855	-7.593984
O	-0.914286	-0.913067	-5.252487
O	-5.254046	0.913067	-7.765771
O	-3.425474	-0.913067	-7.765771
O	-3.084166	1.256642	-5.596062
O	0.914286	0.913067	-5.252487
O	-3.084166	3.082777	-7.422197
O	-1.255594	3.082777	-5.596062
O	-1.255594	1.256642	-7.422197
Ca	0.000000	4.339419	-4.339419
Ca	2.169880	2.169710	-6.509129
Ni	-1.084940	3.254565	-7.593984
Ni	3.254820	5.424274	-5.424274
Ni	5.424700	3.254565	-5.424274
Ni	1.084940	5.424274	-7.593984
O	3.425474	3.426352	-5.252487
O	-0.914286	5.252487	-7.765771
O	0.914286	3.426352	-7.765771
O	1.255594	5.596062	-5.596062
O	5.254046	5.252487	-5.252487
O	1.255594	7.422197	-7.422197
O	3.084166	7.422197	-5.596062
O	3.084166	5.596062	-7.422197
Ca	4.339760	-4.339419	0.000000
Ca	6.509640	-6.509129	-2.169710
Ni	3.254820	-5.424274	-3.254565
Ni	7.594579	-3.254565	-1.084855
Ni	9.764459	-5.424274	-1.084855
Ni	5.424700	-3.254565	-3.254565
O	7.765233	-5.252487	-0.913067
O	3.425474	-3.426352	-3.426352
O	5.254046	-5.252487	-3.426352
O	5.595354	-3.082777	-1.256642
O	9.593805	-3.426352	-0.913067
O	5.595354	-1.256642	-3.082777
O	7.423925	-1.256642	-1.256642
O	7.423925	-3.082777	-3.082777
Ca	8.679519	0.000000	0.000000
Ca	10.849399	-2.169710	-2.169710
Ni	7.594579	-1.084855	-3.254565
Ni	11.934339	1.084855	-1.084855
Ni	14.104219	-1.084855	-1.084855
Ni	9.764459	1.084855	-3.254565
O	12.104993	-0.913067	-0.913067
O	7.765233	0.913067	-3.426352
O	9.593805	-0.913067	-3.426352
O	9.935113	1.256642	-1.256642
O	13.933565	0.913067	-0.913067
O	9.935113	3.082777	-3.082777
O	11.763685	3.082777	-1.256642
O	11.763685	1.256642	-3.082777
Ca	0.000000	-4.339419	-4.339419
Ca	2.169880	-6.509129	-6.509129
Ni	-1.084940	-5.424274	-7.593984
Ni	3.254820	-3.254565	-5.424274
Ni	5.424700	-5.424274	-5.424274
Ni	1.084940	-3.254565	-7.593984
O	3.425474	-5.252487	-5.252487
O	-0.914286	-3.426352	-7.765771
O	0.914286	-5.252487	-7.765771
O	1.255594	-3.082777	-5.596062
O	5.254046	-3.426352	-5.252487
O	1.255594	-1.256642	-7.422197
O	3.084166	-1.256642	-5.596062
O	3.084166	-3.082777	-7.422197
Ca	4.339760	0.000000	-4.339419
Ca	6.509640	-2.169710	-6.509129
Ni	3.254820	-1.084855	-7.593984
Ni	7.594579	1.084855	-5.424274
Ni	9.764459	-1.084855	-5.424274
Ni	5.424700	1.084855	-7.593984
O	7.765233	-0.913067	-5.252487
O	3.425474	0.913067	-7.765771
O	5.254046	-0.913067	-7.765771
O	5.595354	1.256642	-5.596062
O	9.593805	0.913067	-5.252487
O	5.595354	3.082777	-7.422197
O	7.423925	3.082777	-5.596062
O	7.423925	1.256642	-7.422197
