112

Fe	5.326040	5.326040	5.326040
Fe	3.195620	3.195620	5.326040
Fe	5.326040	3.195620	3.195620
Fe	3.195620	5.326040	3.195620
O	3.284980	3.284980	3.284980
O	5.236690	5.236690	3.284980
O	3.284980	5.236690	5.236690
O	5.236690	3.284980	5.236690
O	7.367090	7.367090	7.367090
O	5.415390	5.415390	7.367090
O	5.415390	7.367090	5.415390
O	7.367090	5.415390	5.415390
Zn	0.000000	0.000000	0.000000
Zn	2.130420	2.130420	2.130420
Fe	9.586873	9.586873	5.326040
Fe	7.456453	7.456453	5.326040
Fe	9.586873	7.456453	3.195620
Fe	7.456453	9.586873	3.195620
O	7.545813	7.545813	3.284980
O	9.497523	9.497523	3.284980
O	7.545813	9.497523	5.236690
O	9.497523	7.545813	5.236690
O	11.627923	11.627923	7.367090
O	9.676223	9.676223	7.367090
O	9.676223	11.627923	5.415390
O	11.627923	9.676223	5.415390
Zn	4.260833	4.260833	0.000000
Zn	6.391253	6.391253	2.130420
Fe	9.586873	5.326040	9.586873
Fe	7.456453	3.195620	9.586873
Fe	9.586873	3.195620	7.456453
Fe	7.456453	5.326040	7.456453
O	7.545813	3.284980	7.545813
O	9.497523	5.236690	7.545813
O	7.545813	5.236690	9.497523
O	9.497523	3.284980	9.497523
O	11.627923	7.367090	11.627923
O	9.676223	5.415390	11.627923
O	9.676223	7.367090	9.676223
O	11.627923	5.415390	9.676223
Zn	4.260833	0.000000	4.260833
Zn	6.391253	2.130420	6.391253
Fe	13.847706	9.586873	9.586873
Fe	11.717286	7.456453	9.586873
Fe	13.847706	7.456453	7.456453
Fe	11.717286	9.586873	7.456453
O	11.806646	7.545813	7.545813
O	13.758356	9.497523	7.545813
O	11.806646	9.497523	9.497523
O	13.758356	7.545813	9.497523
O	15.888756	11.627923	11.627923
O	13.937056	9.676223	11.627923
O	13.937056	11.627923	9.676223
O	15.888756	9.676223	9.676223
Zn	8.521666	4.260833	4.260833
Zn	10.652086	6.391253	6.391253
Fe	5.326040	9.586873	9.586873
Fe	3.195620	7.456453	9.586873
Fe	5.326040	7.456453	7.456453
Fe	3.195620	9.586873	7.456453
O	3.284980	7.545813	7.545813
O	5.236690	9.497523	7.545813
O	3.284980	9.497523	9.497523
O	5.236690	7.545813	9.497523
O	7.367090	11.627923	11.627923
O	5.415390	9.676223	11.627923
O	5.415390	11.627923	9.676223
O	7.367090	9.676223	9.676223
Zn	0.000000	4.260833	4.260833
Zn	2.130420	6.391253	6.391253
Fe	9.586873	13.847706	9.586873
Fe	7.456453	11.717286	9.586873
Fe	9.586873	11.717286	7.456453
Fe	7.456453	13.847706	7.456453
O	7.545813	11.806646	7.545813
O	9.497523	13.758356	7.545813
O	7.545813	13.758356	9.497523
O	9.497523	11.806646	9.497523
O	11.627923	15.888756	11.627923
O	9.676223	13.937056	11.627923
O	9.676223	15.888756	9.676223
O	11.627923	13.937056	9.676223
Zn	4.260833	8.521666	4.260833
Zn	6.391253	10.652086	6.391253
Fe	9.586873	9.586873	13.847706
Fe	7.456453	7.456453	13.847706
Fe	9.586873	7.456453	11.717286
Fe	7.456453	9.586873	11.717286
O	7.545813	7.545813	11.806646
O	9.497523	9.497523	11.806646
O	7.545813	9.497523	13.758356
O	9.497523	7.545813	13.758356
O	11.627923	11.627923	15.888756
O	9.676223	9.676223	15.888756
O	9.676223	11.627923	13.937056
O	11.627923	9.676223	13.937056
Zn	4.260833	4.260833	8.521666
Zn	6.391253	6.391253	10.652086
Fe	13.847706	13.847706	13.847706
Fe	11.717286	11.717286	13.847706
Fe	13.847706	11.717286	11.717286
Fe	11.717286	13.847706	11.717286
O	11.806646	11.806646	11.806646
O	13.758356	13.758356	11.806646
O	11.806646	13.758356	13.758356
O	13.758356	11.806646	13.758356
O	15.888756	15.888756	15.888756
O	13.937056	13.937056	15.888756
O	13.937056	15.888756	13.937056
O	15.888756	13.937056	13.937056
Zn	8.521666	8.521666	8.521666
Zn	10.652086	10.652086	10.652086
