112

O	4.000432	-1.001358	-1.001358
O	-1.001753	1.001358	-4.002393
O	1.001753	-1.001358	-4.002393
O	1.499344	1.500517	-1.500517
O	6.003939	1.001358	-1.001358
O	1.499344	3.503224	-3.503224
O	3.502841	3.503224	-1.500517
O	3.502841	1.500517	-3.503224
Rb	0.000000	0.000000	0.000000
Rb	2.501088	-2.501876	-2.501876
Sb	-1.250544	-1.250933	-3.752808
Sb	1.250544	1.250933	-3.752808
Sb	3.751642	1.250933	-1.250933
Sb	6.252729	-1.250933	-1.250933
O	9.002617	4.002389	-1.001358
O	4.000432	6.005105	-4.002393
O	6.003939	4.002389	-4.002393
O	6.501529	6.504265	-1.500517
O	11.006124	6.005105	-1.001358
O	6.501529	8.506971	-3.503224
O	8.505026	8.506971	-1.500517
O	8.505026	6.504265	-3.503224
Rb	5.002185	5.003747	0.000000
Rb	7.503273	2.501872	-2.501876
Sb	3.751641	3.752814	-3.752808
Sb	6.252729	6.254680	-3.752808
Sb	8.753827	6.254680	-1.250933
Sb	11.254915	3.752814	-1.250933
O	-1.001753	-1.001358	-6.005105
O	-6.003939	1.001358	-9.006140
O	-4.000432	-1.001358	-9.006140
O	-3.502841	1.500517	-6.504265
O	1.001754	1.001358	-6.005105
O	-3.502841	3.503224	-8.506971
O	-1.499344	3.503224	-6.504265
O	-1.499344	1.500517	-8.506971
Rb	-5.002185	0.000000	-5.003747
Rb	-2.501097	-2.501876	-7.505623
Sb	-6.252729	-1.250933	-8.756556
Sb	-3.751641	1.250933	-8.756556
Sb	-1.250543	1.250933	-6.254680
Sb	1.250544	-1.250933	-6.254680
O	4.000432	4.002389	-6.005105
O	-1.001753	6.005105	-9.006140
O	1.001753	4.002389	-9.006140
O	1.499344	6.504265	-6.504265
O	6.003939	6.005105	-6.005105
O	1.499344	8.506971	-8.506971
O	3.502841	8.506971	-6.504265
O	3.502841	6.504265	-8.506971
Rb	0.000000	5.003747	-5.003747
Rb	2.501088	2.501872	-7.505623
Sb	-1.250544	3.752814	-8.756556
Sb	1.250544	6.254680	-8.756556
Sb	3.751642	6.254680	-6.254680
Sb	6.252729	3.752814	-6.254680
O	9.002617	-6.005105	-1.001358
O	4.000432	-4.002389	-4.002393
O	6.003939	-6.005105	-4.002393
O	6.501529	-3.503230	-1.500517
O	11.006124	-4.002389	-1.001358
O	6.501529	-1.500523	-3.503224
O	8.505026	-1.500523	-1.500517
O	8.505026	-3.503230	-3.503224
Rb	5.002185	-5.003747	0.000000
Rb	7.503273	-7.505623	-2.501876
Sb	3.751641	-6.254680	-3.752808
Sb	6.252729	-3.752814	-3.752808
Sb	8.753827	-3.752814	-1.250933
Sb	11.254915	-6.254680	-1.250933
O	14.004803	-1.001358	-1.001358
O	9.002617	1.001358	-4.002393
O	11.006124	-1.001358	-4.002393
O	11.503715	1.500517	-1.500517
O	16.008309	1.001358	-1.001358
O	11.503715	3.503224	-3.503224
O	13.507212	3.503224	-1.500517
O	13.507212	1.500517	-3.503224
Rb	10.004370	0.000000	0.000000
Rb	12.505458	-2.501876	-2.501876
Sb	8.753826	-1.250933	-3.752808
Sb	11.254914	1.250933	-3.752808
Sb	13.756012	1.250933	-1.250933
Sb	16.257100	-1.250933	-1.250933
O	4.000432	-6.005105	-6.005105
O	-1.001753	-4.002389	-9.006140
O	1.001753	-6.005105	-9.006140
O	1.499344	-3.503230	-6.504265
O	6.003939	-4.002389	-6.005105
O	1.499344	-1.500523	-8.506971
O	3.502841	-1.500523	-6.504265
O	3.502841	-3.503230	-8.506971
Rb	0.000000	-5.003747	-5.003747
Rb	2.501088	-7.505623	-7.505623
Sb	-1.250544	-6.254680	-8.756556
Sb	1.250544	-3.752814	-8.756556
Sb	3.751642	-3.752814	-6.254680
Sb	6.252729	-6.254680	-6.254680
O	9.002617	-1.001358	-6.005105
O	4.000432	1.001358	-9.006140
O	6.003939	-1.001358	-9.006140
O	6.501529	1.500517	-6.504265
O	11.006124	1.001358	-6.005105
O	6.501529	3.503224	-8.506971
O	8.505026	3.503224	-6.504265
O	8.505026	1.500517	-8.506971
Rb	5.002185	0.000000	-5.003747
Rb	7.503273	-2.501876	-7.505623
Sb	3.751641	-1.250933	-8.756556
Sb	6.252729	1.250933	-8.756556
Sb	8.753827	1.250933	-6.254680
Sb	11.254915	-1.250933	-6.254680
