40

Bi	0.000000	0.000000	0.000000
Ir	2.008998	2.008998	2.008998
O	0.000000	2.008998	2.008998
O	2.008998	0.000000	2.008998
O	2.008998	2.008998	0.000000
Bi	0.000000	0.000000	4.017995
Ir	2.008998	2.008998	6.026993
O	0.000000	2.008998	6.026993
O	2.008998	0.000000	6.026993
O	2.008998	2.008998	4.017995
Bi	0.000000	4.017995	0.000000
Ir	2.008998	6.026993	2.008998
O	0.000000	6.026993	2.008998
O	2.008998	4.017995	2.008998
O	2.008998	6.026993	0.000000
Bi	0.000000	4.017995	4.017995
Ir	2.008998	6.026993	6.026993
O	0.000000	6.026993	6.026993
O	2.008998	4.017995	6.026993
O	2.008998	6.026993	4.017995
Bi	4.017995	0.000000	0.000000
Ir	6.026993	2.008998	2.008998
O	4.017995	2.008998	2.008998
O	6.026993	0.000000	2.008998
O	6.026993	2.008998	0.000000
Bi	4.017995	0.000000	4.017995
Ir	6.026993	2.008998	6.026993
O	4.017995	2.008998	6.026993
O	6.026993	0.000000	6.026993
O	6.026993	2.008998	4.017995
Bi	4.017995	4.017995	0.000000
Ir	6.026993	6.026993	2.008998
O	4.017995	6.026993	2.008998
O	6.026993	4.017995	2.008998
O	6.026993	6.026993	0.000000
Bi	4.017995	4.017995	4.017995
Ir	6.026993	6.026993	6.026993
O	4.017995	6.026993	6.026993
O	6.026993	4.017995	6.026993
O	6.026993	6.026993	4.017995
