40

Bi	2.101755	2.101755	2.101755
Ir	0.000000	0.000000	0.000000
O	2.101755	2.101755	0.000000
O	2.101755	0.000000	2.101755
O	0.000000	2.101755	2.101755
Bi	2.101755	2.101755	6.305267
Ir	0.000000	0.000000	4.203512
O	2.101755	2.101755	4.203512
O	2.101755	0.000000	6.305267
O	0.000000	2.101755	6.305267
Bi	2.101755	6.305267	2.101755
Ir	0.000000	4.203512	0.000000
O	2.101755	6.305267	0.000000
O	2.101755	4.203512	2.101755
O	0.000000	6.305267	2.101755
Bi	2.101755	6.305267	6.305267
Ir	0.000000	4.203512	4.203512
O	2.101755	6.305267	4.203512
O	2.101755	4.203512	6.305267
O	0.000000	6.305267	6.305267
Bi	6.305267	2.101755	2.101755
Ir	4.203512	0.000000	0.000000
O	6.305267	2.101755	0.000000
O	6.305267	0.000000	2.101755
O	4.203512	2.101755	2.101755
Bi	6.305267	2.101755	6.305267
Ir	4.203512	0.000000	4.203512
O	6.305267	2.101755	4.203512
O	6.305267	0.000000	6.305267
O	4.203512	2.101755	6.305267
Bi	6.305267	6.305267	2.101755
Ir	4.203512	4.203512	0.000000
O	6.305267	6.305267	0.000000
O	6.305267	4.203512	2.101755
O	4.203512	6.305267	2.101755
Bi	6.305267	6.305267	6.305267
Ir	4.203512	4.203512	4.203512
O	6.305267	6.305267	4.203512
O	6.305267	4.203512	6.305267
O	4.203512	6.305267	6.305267
