40

Ba	2.109708	2.109708	2.109708
O	2.109708	0.000000	0.000000
O	0.000000	2.109708	0.000000
O	0.000000	0.000000	2.109708
Zr	-0.015000	0.000000	0.000000
Ba	2.109708	2.109708	6.329123
O	2.109708	0.000000	4.219415
O	0.000000	2.109708	4.219415
O	0.000000	0.000000	6.329123
Zr	-0.015000	0.000000	4.219415
Ba	2.109708	6.329123	2.109708
O	2.109708	4.219415	0.000000
O	0.000000	6.329123	0.000000
O	0.000000	4.219415	2.109708
Zr	-0.015000	4.219415	0.000000
Ba	2.109708	6.329123	6.329123
O	2.109708	4.219415	4.219415
O	0.000000	6.329123	4.219415
O	0.000000	4.219415	6.329123
Zr	-0.015000	4.219415	4.219415
Ba	6.329123	2.109708	2.109708
O	6.329123	0.000000	0.000000
O	4.219415	2.109708	0.000000
O	4.219415	0.000000	2.109708
Zr	4.204415	0.000000	0.000000
Ba	6.329123	2.109708	6.329123
O	6.329123	0.000000	4.219415
O	4.219415	2.109708	4.219415
O	4.219415	0.000000	6.329123
Zr	4.204415	0.000000	4.219415
Ba	6.329123	6.329123	2.109708
O	6.329123	4.219415	0.000000
O	4.219415	6.329123	0.000000
O	4.219415	4.219415	2.109708
Zr	4.204415	4.219415	0.000000
Ba	6.329123	6.329123	6.329123
O	6.329123	4.219415	4.219415
O	4.219415	6.329123	4.219415
O	4.219415	4.219415	6.329123
Zr	4.204415	4.219415	4.219415
