40

Ba	2.332236	2.332236	2.332236
O	0.000000	2.332236	2.332236
O	2.332236	0.000000	2.332236
O	2.332236	2.332236	0.000000
Zr	0.000000	0.000000	0.000000
Ba	2.332236	2.332236	6.996707
O	0.000000	2.332236	6.996707
O	2.332236	0.000000	6.996707
O	2.332236	2.332236	4.664471
Zr	0.000000	0.000000	4.664471
Ba	2.332236	6.996707	2.332236
O	0.000000	6.996707	2.332236
O	2.332236	4.664471	2.332236
O	2.332236	6.996707	0.000000
Zr	0.000000	4.664471	0.000000
Ba	2.332236	6.996707	6.996707
O	0.000000	6.996707	6.996707
O	2.332236	4.664471	6.996707
O	2.332236	6.996707	4.664471
Zr	0.000000	4.664471	4.664471
Ba	6.996707	2.332236	2.332236
O	4.664471	2.332236	2.332236
O	6.996707	0.000000	2.332236
O	6.996707	2.332236	0.000000
Zr	4.664471	0.000000	0.000000
Ba	6.996707	2.332236	6.996707
O	4.664471	2.332236	6.996707
O	6.996707	0.000000	6.996707
O	6.996707	2.332236	4.664471
Zr	4.664471	0.000000	4.664471
Ba	6.996707	6.996707	2.332236
O	4.664471	6.996707	2.332236
O	6.996707	4.664471	2.332236
O	6.996707	6.996707	0.000000
Zr	4.664471	4.664471	0.000000
Ba	6.996707	6.996707	6.996707
O	4.664471	6.996707	6.996707
O	6.996707	4.664471	6.996707
O	6.996707	6.996707	4.664471
Zr	4.664471	4.664471	4.664471
