40

Ba	2.326975	2.326975	2.326975
O	0.000000	2.326975	2.326975
O	2.326975	0.000000	2.326975
O	2.326975	2.326975	0.000000
Zr	0.000000	0.000000	0.000000
Ba	2.326975	2.326975	6.980926
O	0.000000	2.326975	6.980926
O	2.326975	0.000000	6.980926
O	2.326975	2.326975	4.653950
Zr	0.000000	0.000000	4.653950
Ba	2.326975	6.980926	2.326975
O	0.000000	6.980926	2.326975
O	2.326975	4.653950	2.326975
O	2.326975	6.980926	0.000000
Zr	0.000000	4.653950	0.000000
Ba	2.326975	6.980926	6.980926
O	0.000000	6.980926	6.980926
O	2.326975	4.653950	6.980926
O	2.326975	6.980926	4.653950
Zr	0.000000	4.653950	4.653950
Ba	6.980926	2.326975	2.326975
O	4.653950	2.326975	2.326975
O	6.980926	0.000000	2.326975
O	6.980926	2.326975	0.000000
Zr	4.653950	0.000000	0.000000
Ba	6.980926	2.326975	6.980926
O	4.653950	2.326975	6.980926
O	6.980926	0.000000	6.980926
O	6.980926	2.326975	4.653950
Zr	4.653950	0.000000	4.653950
Ba	6.980926	6.980926	2.326975
O	4.653950	6.980926	2.326975
O	6.980926	4.653950	2.326975
O	6.980926	6.980926	0.000000
Zr	4.653950	4.653950	0.000000
Ba	6.980926	6.980926	6.980926
O	4.653950	6.980926	6.980926
O	6.980926	4.653950	6.980926
O	6.980926	6.980926	4.653950
Zr	4.653950	4.653950	4.653950
