40

Ga	0.000000	0.000000	0.000000
Ge	1.876985	1.876985	1.876985
O	0.000000	1.876985	1.876985
O	1.876985	0.000000	1.876985
O	1.876985	1.876985	0.000000
Ga	0.000000	0.000000	3.753971
Ge	1.876985	1.876985	5.630956
O	0.000000	1.876985	5.630956
O	1.876985	0.000000	5.630956
O	1.876985	1.876985	3.753971
Ga	0.000000	3.753971	0.000000
Ge	1.876985	5.630956	1.876985
O	0.000000	5.630956	1.876985
O	1.876985	3.753971	1.876985
O	1.876985	5.630956	0.000000
Ga	0.000000	3.753971	3.753971
Ge	1.876985	5.630956	5.630956
O	0.000000	5.630956	5.630956
O	1.876985	3.753971	5.630956
O	1.876985	5.630956	3.753971
Ga	3.753971	0.000000	0.000000
Ge	5.630956	1.876985	1.876985
O	3.753971	1.876985	1.876985
O	5.630956	0.000000	1.876985
O	5.630956	1.876985	0.000000
Ga	3.753971	0.000000	3.753971
Ge	5.630956	1.876985	5.630956
O	3.753971	1.876985	5.630956
O	5.630956	0.000000	5.630956
O	5.630956	1.876985	3.753971
Ga	3.753971	3.753971	0.000000
Ge	5.630956	5.630956	1.876985
O	3.753971	5.630956	1.876985
O	5.630956	3.753971	1.876985
O	5.630956	5.630956	0.000000
Ga	3.753971	3.753971	3.753971
Ge	5.630956	5.630956	5.630956
O	3.753971	5.630956	5.630956
O	5.630956	3.753971	5.630956
O	5.630956	5.630956	3.753971
