40

N	0.000000	0.000000	0.000000
O	0.000000	1.975498	1.975498
O	1.975498	0.000000	1.975498
O	1.975498	1.975498	0.000000
Sb	1.975498	1.975498	1.975498
N	0.000000	0.000000	3.950997
O	0.000000	1.975498	5.926495
O	1.975498	0.000000	5.926495
O	1.975498	1.975498	3.950997
Sb	1.975498	1.975498	5.926495
N	0.000000	3.950997	0.000000
O	0.000000	5.926495	1.975498
O	1.975498	3.950997	1.975498
O	1.975498	5.926495	0.000000
Sb	1.975498	5.926495	1.975498
N	0.000000	3.950997	3.950997
O	0.000000	5.926495	5.926495
O	1.975498	3.950997	5.926495
O	1.975498	5.926495	3.950997
Sb	1.975498	5.926495	5.926495
N	3.950997	0.000000	0.000000
O	3.950997	1.975498	1.975498
O	5.926495	0.000000	1.975498
O	5.926495	1.975498	0.000000
Sb	5.926495	1.975498	1.975498
N	3.950997	0.000000	3.950997
O	3.950997	1.975498	5.926495
O	5.926495	0.000000	5.926495
O	5.926495	1.975498	3.950997
Sb	5.926495	1.975498	5.926495
N	3.950997	3.950997	0.000000
O	3.950997	5.926495	1.975498
O	5.926495	3.950997	1.975498
O	5.926495	5.926495	0.000000
Sb	5.926495	5.926495	1.975498
N	3.950997	3.950997	3.950997
O	3.950997	5.926495	5.926495
O	5.926495	3.950997	5.926495
O	5.926495	5.926495	3.950997
Sb	5.926495	5.926495	5.926495
