40

N	1.765223	1.765223	1.765223
O	0.000000	1.765223	1.765223
O	1.765223	0.000000	1.765223
O	1.765223	1.765223	0.000000
S	0.000000	0.000000	0.000000
N	1.765223	1.765223	5.295669
O	0.000000	1.765223	5.295669
O	1.765223	0.000000	5.295669
O	1.765223	1.765223	3.530446
S	0.000000	0.000000	3.530446
N	1.765223	5.295669	1.765223
O	0.000000	5.295669	1.765223
O	1.765223	3.530446	1.765223
O	1.765223	5.295669	0.000000
S	0.000000	3.530446	0.000000
N	1.765223	5.295669	5.295669
O	0.000000	5.295669	5.295669
O	1.765223	3.530446	5.295669
O	1.765223	5.295669	3.530446
S	0.000000	3.530446	3.530446
N	5.295669	1.765223	1.765223
O	3.530446	1.765223	1.765223
O	5.295669	0.000000	1.765223
O	5.295669	1.765223	0.000000
S	3.530446	0.000000	0.000000
N	5.295669	1.765223	5.295669
O	3.530446	1.765223	5.295669
O	5.295669	0.000000	5.295669
O	5.295669	1.765223	3.530446
S	3.530446	0.000000	3.530446
N	5.295669	5.295669	1.765223
O	3.530446	5.295669	1.765223
O	5.295669	3.530446	1.765223
O	5.295669	5.295669	0.000000
S	3.530446	3.530446	0.000000
N	5.295669	5.295669	5.295669
O	3.530446	5.295669	5.295669
O	5.295669	3.530446	5.295669
O	5.295669	5.295669	3.530446
S	3.530446	3.530446	3.530446
