40

O	2.030549	2.030549	0.000000
O	2.030549	0.000000	2.030549
O	0.000000	2.030549	2.030549
Pt	2.030549	2.030549	2.030549
Te	0.000000	0.000000	0.000000
O	2.030549	2.030549	4.061098
O	2.030549	0.000000	6.091648
O	0.000000	2.030549	6.091648
Pt	2.030549	2.030549	6.091648
Te	0.000000	0.000000	4.061098
O	2.030549	6.091648	0.000000
O	2.030549	4.061098	2.030549
O	0.000000	6.091648	2.030549
Pt	2.030549	6.091648	2.030549
Te	0.000000	4.061098	0.000000
O	2.030549	6.091648	4.061098
O	2.030549	4.061098	6.091648
O	0.000000	6.091648	6.091648
Pt	2.030549	6.091648	6.091648
Te	0.000000	4.061098	4.061098
O	6.091648	2.030549	0.000000
O	6.091648	0.000000	2.030549
O	4.061098	2.030549	2.030549
Pt	6.091648	2.030549	2.030549
Te	4.061098	0.000000	0.000000
O	6.091648	2.030549	4.061098
O	6.091648	0.000000	6.091648
O	4.061098	2.030549	6.091648
Pt	6.091648	2.030549	6.091648
Te	4.061098	0.000000	4.061098
O	6.091648	6.091648	0.000000
O	6.091648	4.061098	2.030549
O	4.061098	6.091648	2.030549
Pt	6.091648	6.091648	2.030549
Te	4.061098	4.061098	0.000000
O	6.091648	6.091648	4.061098
O	6.091648	4.061098	6.091648
O	4.061098	6.091648	6.091648
Pt	6.091648	6.091648	6.091648
Te	4.061098	4.061098	4.061098
