40

Cu	1.874360	1.874360	1.874360
Gd	0.000000	0.000000	0.000000
O	1.874360	0.000000	1.874360
O	0.000000	1.874360	1.874360
O	1.874360	1.874360	0.000000
Cu	1.874360	1.874360	5.623070
Gd	0.000000	0.000000	3.748710
O	1.874360	0.000000	5.623070
O	0.000000	1.874360	5.623070
O	1.874360	1.874360	3.748710
Cu	1.874360	5.623070	1.874360
Gd	0.000000	3.748710	0.000000
O	1.874360	3.748710	1.874360
O	0.000000	5.623070	1.874360
O	1.874360	5.623070	0.000000
Cu	1.874360	5.623070	5.623070
Gd	0.000000	3.748710	3.748710
O	1.874360	3.748710	5.623070
O	0.000000	5.623070	5.623070
O	1.874360	5.623070	3.748710
Cu	5.623070	1.874360	1.874360
Gd	3.748710	0.000000	0.000000
O	5.623070	0.000000	1.874360
O	3.748710	1.874360	1.874360
O	5.623070	1.874360	0.000000
Cu	5.623070	1.874360	5.623070
Gd	3.748710	0.000000	3.748710
O	5.623070	0.000000	5.623070
O	3.748710	1.874360	5.623070
O	5.623070	1.874360	3.748710
Cu	5.623070	5.623070	1.874360
Gd	3.748710	3.748710	0.000000
O	5.623070	3.748710	1.874360
O	3.748710	5.623070	1.874360
O	5.623070	5.623070	0.000000
Cu	5.623070	5.623070	5.623070
Gd	3.748710	3.748710	3.748710
O	5.623070	3.748710	5.623070
O	3.748710	5.623070	5.623070
O	5.623070	5.623070	3.748710
