40

O	2.222906	2.222906	0.000000
O	0.000000	2.222906	2.222906
O	2.222906	0.000000	2.222906
Pr	2.222906	2.222906	2.222906
W	0.000000	0.000000	0.000000
O	2.222906	2.222906	4.445820
O	0.000000	2.222906	6.668726
O	2.222906	0.000000	6.668726
Pr	2.222906	2.222906	6.668726
W	0.000000	0.000000	4.445820
O	2.222906	6.668726	0.000000
O	0.000000	6.668726	2.222906
O	2.222906	4.445820	2.222906
Pr	2.222906	6.668726	2.222906
W	0.000000	4.445820	0.000000
O	2.222906	6.668726	4.445820
O	0.000000	6.668726	6.668726
O	2.222906	4.445820	6.668726
Pr	2.222906	6.668726	6.668726
W	0.000000	4.445820	4.445820
O	6.668726	2.222906	0.000000
O	4.445820	2.222906	2.222906
O	6.668726	0.000000	2.222906
Pr	6.668726	2.222906	2.222906
W	4.445820	0.000000	0.000000
O	6.668726	2.222906	4.445820
O	4.445820	2.222906	6.668726
O	6.668726	0.000000	6.668726
Pr	6.668726	2.222906	6.668726
W	4.445820	0.000000	4.445820
O	6.668726	6.668726	0.000000
O	4.445820	6.668726	2.222906
O	6.668726	4.445820	2.222906
Pr	6.668726	6.668726	2.222906
W	4.445820	4.445820	0.000000
O	6.668726	6.668726	4.445820
O	4.445820	6.668726	6.668726
O	6.668726	4.445820	6.668726
Pr	6.668726	6.668726	6.668726
W	4.445820	4.445820	4.445820
