40

Cd	0.000000	0.000000	0.000000
Cr	1.913409	1.913409	1.913409
O	0.000000	1.913409	1.913409
O	1.913409	0.000000	1.913409
O	1.913409	1.913409	0.000000
Cd	0.000000	0.000000	3.826818
Cr	1.913409	1.913409	5.740226
O	0.000000	1.913409	5.740226
O	1.913409	0.000000	5.740226
O	1.913409	1.913409	3.826818
Cd	0.000000	3.826818	0.000000
Cr	1.913409	5.740226	1.913409
O	0.000000	5.740226	1.913409
O	1.913409	3.826818	1.913409
O	1.913409	5.740226	0.000000
Cd	0.000000	3.826818	3.826818
Cr	1.913409	5.740226	5.740226
O	0.000000	5.740226	5.740226
O	1.913409	3.826818	5.740226
O	1.913409	5.740226	3.826818
Cd	3.826818	0.000000	0.000000
Cr	5.740226	1.913409	1.913409
O	3.826818	1.913409	1.913409
O	5.740226	0.000000	1.913409
O	5.740226	1.913409	0.000000
Cd	3.826818	0.000000	3.826818
Cr	5.740226	1.913409	5.740226
O	3.826818	1.913409	5.740226
O	5.740226	0.000000	5.740226
O	5.740226	1.913409	3.826818
Cd	3.826818	3.826818	0.000000
Cr	5.740226	5.740226	1.913409
O	3.826818	5.740226	1.913409
O	5.740226	3.826818	1.913409
O	5.740226	5.740226	0.000000
Cd	3.826818	3.826818	3.826818
Cr	5.740226	5.740226	5.740226
O	3.826818	5.740226	5.740226
O	5.740226	3.826818	5.740226
O	5.740226	5.740226	3.826818
