40

Lu	2.081347	2.081347	2.081347
O	2.081347	2.081347	0.000000
O	2.081347	0.000000	2.081347
O	0.000000	2.081347	2.081347
V	0.000000	0.000000	0.000000
Lu	2.081347	2.081347	6.244033
O	2.081347	2.081347	4.162686
O	2.081347	0.000000	6.244033
O	0.000000	2.081347	6.244033
V	0.000000	0.000000	4.162686
Lu	2.081347	6.244033	2.081347
O	2.081347	6.244033	0.000000
O	2.081347	4.162686	2.081347
O	0.000000	6.244033	2.081347
V	0.000000	4.162686	0.000000
Lu	2.081347	6.244033	6.244033
O	2.081347	6.244033	4.162686
O	2.081347	4.162686	6.244033
O	0.000000	6.244033	6.244033
V	0.000000	4.162686	4.162686
Lu	6.244033	2.081347	2.081347
O	6.244033	2.081347	0.000000
O	6.244033	0.000000	2.081347
O	4.162686	2.081347	2.081347
V	4.162686	0.000000	0.000000
Lu	6.244033	2.081347	6.244033
O	6.244033	2.081347	4.162686
O	6.244033	0.000000	6.244033
O	4.162686	2.081347	6.244033
V	4.162686	0.000000	4.162686
Lu	6.244033	6.244033	2.081347
O	6.244033	6.244033	0.000000
O	6.244033	4.162686	2.081347
O	4.162686	6.244033	2.081347
V	4.162686	4.162686	0.000000
Lu	6.244033	6.244033	6.244033
O	6.244033	6.244033	4.162686
O	6.244033	4.162686	6.244033
O	4.162686	6.244033	6.244033
V	4.162686	4.162686	4.162686
