40

Fe	0.000000	0.000000	0.000000
O	0.000000	2.105310	2.105310
O	2.105310	0.000000	2.105310
O	2.105310	2.105310	0.000000
Pb	2.105310	2.105310	2.105310
Fe	0.000000	0.000000	4.210620
O	0.000000	2.105310	6.315930
O	2.105310	0.000000	6.315930
O	2.105310	2.105310	4.210620
Pb	2.105310	2.105310	6.315930
Fe	0.000000	4.210620	0.000000
O	0.000000	6.315930	2.105310
O	2.105310	4.210620	2.105310
O	2.105310	6.315930	0.000000
Pb	2.105310	6.315930	2.105310
Fe	0.000000	4.210620	4.210620
O	0.000000	6.315930	6.315930
O	2.105310	4.210620	6.315930
O	2.105310	6.315930	4.210620
Pb	2.105310	6.315930	6.315930
Fe	4.210620	0.000000	0.000000
O	4.210620	2.105310	2.105310
O	6.315930	0.000000	2.105310
O	6.315930	2.105310	0.000000
Pb	6.315930	2.105310	2.105310
Fe	4.210620	0.000000	4.210620
O	4.210620	2.105310	6.315930
O	6.315930	0.000000	6.315930
O	6.315930	2.105310	4.210620
Pb	6.315930	2.105310	6.315930
Fe	4.210620	4.210620	0.000000
O	4.210620	6.315930	2.105310
O	6.315930	4.210620	2.105310
O	6.315930	6.315930	0.000000
Pb	6.315930	6.315930	2.105310
Fe	4.210620	4.210620	4.210620
O	4.210620	6.315930	6.315930
O	6.315930	4.210620	6.315930
O	6.315930	6.315930	4.210620
Pb	6.315930	6.315930	6.315930
