40

Fe	1.967762	1.967762	1.967762
O	0.000000	1.967762	1.967762
O	1.967762	0.000000	1.967762
O	1.967762	1.967762	0.000000
Pb	0.000000	0.000000	0.000000
Fe	1.967762	1.967762	5.903286
O	0.000000	1.967762	5.903286
O	1.967762	0.000000	5.903286
O	1.967762	1.967762	3.935524
Pb	0.000000	0.000000	3.935524
Fe	1.967762	5.903286	1.967762
O	0.000000	5.903286	1.967762
O	1.967762	3.935524	1.967762
O	1.967762	5.903286	0.000000
Pb	0.000000	3.935524	0.000000
Fe	1.967762	5.903286	5.903286
O	0.000000	5.903286	5.903286
O	1.967762	3.935524	5.903286
O	1.967762	5.903286	3.935524
Pb	0.000000	3.935524	3.935524
Fe	5.903286	1.967762	1.967762
O	3.935524	1.967762	1.967762
O	5.903286	0.000000	1.967762
O	5.903286	1.967762	0.000000
Pb	3.935524	0.000000	0.000000
Fe	5.903286	1.967762	5.903286
O	3.935524	1.967762	5.903286
O	5.903286	0.000000	5.903286
O	5.903286	1.967762	3.935524
Pb	3.935524	0.000000	3.935524
Fe	5.903286	5.903286	1.967762
O	3.935524	5.903286	1.967762
O	5.903286	3.935524	1.967762
O	5.903286	5.903286	0.000000
Pb	3.935524	3.935524	0.000000
Fe	5.903286	5.903286	5.903286
O	3.935524	5.903286	5.903286
O	5.903286	3.935524	5.903286
O	5.903286	5.903286	3.935524
Pb	3.935524	3.935524	3.935524
