40

N	0.000000	0.000000	0.000000
O	0.000000	2.107102	2.107102
O	2.107102	0.000000	2.107102
O	2.107102	2.107102	0.000000
Tl	2.107102	2.107102	2.107102
N	0.000000	0.000000	4.214204
O	0.000000	2.107102	6.321306
O	2.107102	0.000000	6.321306
O	2.107102	2.107102	4.214204
Tl	2.107102	2.107102	6.321306
N	0.000000	4.214204	0.000000
O	0.000000	6.321306	2.107102
O	2.107102	4.214204	2.107102
O	2.107102	6.321306	0.000000
Tl	2.107102	6.321306	2.107102
N	0.000000	4.214204	4.214204
O	0.000000	6.321306	6.321306
O	2.107102	4.214204	6.321306
O	2.107102	6.321306	4.214204
Tl	2.107102	6.321306	6.321306
N	4.214204	0.000000	0.000000
O	4.214204	2.107102	2.107102
O	6.321306	0.000000	2.107102
O	6.321306	2.107102	0.000000
Tl	6.321306	2.107102	2.107102
N	4.214204	0.000000	4.214204
O	4.214204	2.107102	6.321306
O	6.321306	0.000000	6.321306
O	6.321306	2.107102	4.214204
Tl	6.321306	2.107102	6.321306
N	4.214204	4.214204	0.000000
O	4.214204	6.321306	2.107102
O	6.321306	4.214204	2.107102
O	6.321306	6.321306	0.000000
Tl	6.321306	6.321306	2.107102
N	4.214204	4.214204	4.214204
O	4.214204	6.321306	6.321306
O	6.321306	4.214204	6.321306
O	6.321306	6.321306	4.214204
Tl	6.321306	6.321306	6.321306
