40

Ca	0.000000	0.000000	0.000000
F	0.000000	1.981844	1.981844
F	1.981844	0.000000	1.981844
F	1.981844	1.981844	0.000000
O	1.981844	1.981844	1.981844
Ca	0.000000	0.000000	3.963687
F	0.000000	1.981844	5.945531
F	1.981844	0.000000	5.945531
F	1.981844	1.981844	3.963687
O	1.981844	1.981844	5.945531
Ca	0.000000	3.963687	0.000000
F	0.000000	5.945531	1.981844
F	1.981844	3.963687	1.981844
F	1.981844	5.945531	0.000000
O	1.981844	5.945531	1.981844
Ca	0.000000	3.963687	3.963687
F	0.000000	5.945531	5.945531
F	1.981844	3.963687	5.945531
F	1.981844	5.945531	3.963687
O	1.981844	5.945531	5.945531
Ca	3.963687	0.000000	0.000000
F	3.963687	1.981844	1.981844
F	5.945531	0.000000	1.981844
F	5.945531	1.981844	0.000000
O	5.945531	1.981844	1.981844
Ca	3.963687	0.000000	3.963687
F	3.963687	1.981844	5.945531
F	5.945531	0.000000	5.945531
F	5.945531	1.981844	3.963687
O	5.945531	1.981844	5.945531
Ca	3.963687	3.963687	0.000000
F	3.963687	5.945531	1.981844
F	5.945531	3.963687	1.981844
F	5.945531	5.945531	0.000000
O	5.945531	5.945531	1.981844
Ca	3.963687	3.963687	3.963687
F	3.963687	5.945531	5.945531
F	5.945531	3.963687	5.945531
F	5.945531	5.945531	3.963687
O	5.945531	5.945531	5.945531
