40

Hg	0.000000	0.000000	0.000000
O	2.161105	2.161105	0.000000
O	2.161105	0.000000	2.161105
O	0.000000	2.161105	2.161105
Rb	2.161105	2.161105	2.161105
Hg	0.000000	0.000000	4.322206
O	2.161105	2.161105	4.322206
O	2.161105	0.000000	6.483311
O	0.000000	2.161105	6.483311
Rb	2.161105	2.161105	6.483311
Hg	0.000000	4.322206	0.000000
O	2.161105	6.483311	0.000000
O	2.161105	4.322206	2.161105
O	0.000000	6.483311	2.161105
Rb	2.161105	6.483311	2.161105
Hg	0.000000	4.322206	4.322206
O	2.161105	6.483311	4.322206
O	2.161105	4.322206	6.483311
O	0.000000	6.483311	6.483311
Rb	2.161105	6.483311	6.483311
Hg	4.322206	0.000000	0.000000
O	6.483311	2.161105	0.000000
O	6.483311	0.000000	2.161105
O	4.322206	2.161105	2.161105
Rb	6.483311	2.161105	2.161105
Hg	4.322206	0.000000	4.322206
O	6.483311	2.161105	4.322206
O	6.483311	0.000000	6.483311
O	4.322206	2.161105	6.483311
Rb	6.483311	2.161105	6.483311
Hg	4.322206	4.322206	0.000000
O	6.483311	6.483311	0.000000
O	6.483311	4.322206	2.161105
O	4.322206	6.483311	2.161105
Rb	6.483311	6.483311	2.161105
Hg	4.322206	4.322206	4.322206
O	6.483311	6.483311	4.322206
O	6.483311	4.322206	6.483311
O	4.322206	6.483311	6.483311
Rb	6.483311	6.483311	6.483311
