112

Cu	0.000000	0.000000	0.000000
Cu	2.148165	-2.148575	-2.148575
O	3.296783	-0.999339	-0.999339
O	-0.999546	0.999339	-3.297810
O	0.999546	-0.999339	-3.297810
O	1.148618	1.149236	-1.149236
O	5.295875	0.999339	-0.999339
O	1.148618	3.147913	-3.147913
O	3.147711	3.147913	-1.149236
O	3.147711	1.149236	-3.147913
Os	-1.074082	-1.074287	-3.222862
Os	3.222247	1.074287	-1.074287
Os	5.370411	-1.074287	-1.074287
Os	1.074082	1.074287	-3.222862
Cu	4.296329	4.297149	0.000000
Cu	6.444494	2.148575	-2.148575
O	7.593112	3.297810	-0.999339
O	3.296783	5.296488	-3.297810
O	5.295875	3.297810	-3.297810
O	5.444947	5.446385	-1.149236
O	9.592204	5.296488	-0.999339
O	5.444947	7.445062	-3.147913
O	7.444040	7.445062	-1.149236
O	7.444040	5.446385	-3.147913
Os	3.222247	3.222862	-3.222862
Os	7.518576	5.371436	-1.074287
Os	9.666740	3.222862	-1.074287
Os	5.370411	5.371436	-3.222862
Cu	-4.296329	0.000000	-4.297149
Cu	-2.148165	-2.148575	-6.445724
O	-0.999546	-0.999339	-5.296488
O	-5.295875	0.999339	-7.594959
O	-3.296783	-0.999339	-7.594959
O	-3.147711	1.149236	-5.446385
O	0.999546	0.999339	-5.296488
O	-3.147711	3.147913	-7.445062
O	-1.148618	3.147913	-5.446385
O	-1.148618	1.149236	-7.445062
Os	-5.370411	-1.074287	-7.520011
Os	-1.074082	1.074287	-5.371436
Os	1.074082	-1.074287	-5.371436
Os	-3.222247	1.074287	-7.520011
Cu	0.000000	4.297149	-4.297149
Cu	2.148165	2.148575	-6.445724
O	3.296783	3.297810	-5.296488
O	-0.999546	5.296488	-7.594959
O	0.999546	3.297810	-7.594959
O	1.148618	5.446385	-5.446385
O	5.295875	5.296488	-5.296488
O	1.148618	7.445062	-7.445062
O	3.147711	7.445062	-5.446385
O	3.147711	5.446385	-7.445062
Os	-1.074082	3.222862	-7.520011
Os	3.222247	5.371436	-5.371436
Os	5.370411	3.222862	-5.371436
Os	1.074082	5.371436	-7.520011
Cu	4.296329	-4.297149	0.000000
Cu	6.444494	-6.445724	-2.148575
O	7.593112	-5.296488	-0.999339
O	3.296783	-3.297810	-3.297810
O	5.295875	-5.296488	-3.297810
O	5.444947	-3.147913	-1.149236
O	9.592204	-3.297810	-0.999339
O	5.444947	-1.149236	-3.147913
O	7.444040	-1.149236	-1.149236
O	7.444040	-3.147913	-3.147913
Os	3.222247	-5.371436	-3.222862
Os	7.518576	-3.222862	-1.074287
Os	9.666740	-5.371436	-1.074287
Os	5.370411	-3.222862	-3.222862
Cu	8.592658	0.000000	0.000000
Cu	10.740823	-2.148575	-2.148575
O	11.889441	-0.999339	-0.999339
O	7.593112	0.999339	-3.297810
O	9.592204	-0.999339	-3.297810
O	9.741277	1.149236	-1.149236
O	13.888533	0.999339	-0.999339
O	9.741277	3.147913	-3.147913
O	11.740369	3.147913	-1.149236
O	11.740369	1.149236	-3.147913
Os	7.518576	-1.074287	-3.222862
Os	11.814905	1.074287	-1.074287
Os	13.963070	-1.074287	-1.074287
Os	9.666740	1.074287	-3.222862
Cu	0.000000	-4.297149	-4.297149
Cu	2.148165	-6.445724	-6.445724
O	3.296783	-5.296488	-5.296488
O	-0.999546	-3.297810	-7.594959
O	0.999546	-5.296488	-7.594959
O	1.148618	-3.147913	-5.446385
O	5.295875	-3.297810	-5.296488
O	1.148618	-1.149236	-7.445062
O	3.147711	-1.149236	-5.446385
O	3.147711	-3.147913	-7.445062
Os	-1.074082	-5.371436	-7.520011
Os	3.222247	-3.222862	-5.371436
Os	5.370411	-5.371436	-5.371436
Os	1.074082	-3.222862	-7.520011
Cu	4.296329	0.000000	-4.297149
Cu	6.444494	-2.148575	-6.445724
O	7.593112	-0.999339	-5.296488
O	3.296783	0.999339	-7.594959
O	5.295875	-0.999339	-7.594959
O	5.444947	1.149236	-5.446385
O	9.592204	0.999339	-5.296488
O	5.444947	3.147913	-7.445062
O	7.444040	3.147913	-5.446385
O	7.444040	1.149236	-7.445062
Os	3.222247	-1.074287	-7.520011
Os	7.518576	1.074287	-5.371436
Os	9.666740	-1.074287	-5.371436
Os	5.370411	1.074287	-7.520011
