112

O	-0.877806	0.877583	-3.729555
O	3.727951	-0.877583	-0.877582
O	0.877806	-0.877582	-3.729555
O	1.425068	1.425986	-1.425986
O	5.483562	0.877583	-0.877582
O	1.425068	3.181151	-3.181151
O	3.180689	3.181151	-1.425986
O	3.180689	1.425986	-3.181151
Rb	0.000000	0.000000	0.000000
Rb	2.302873	-2.303569	-2.303569
Rh	-1.151442	-1.151784	-3.455353
Rh	3.454315	1.151785	-1.151785
Rh	1.151442	1.151784	-3.455353
Rh	5.757198	-1.151785	-1.151785
O	3.727950	5.484722	-3.729555
O	8.333707	3.729557	-0.877582
O	5.483562	3.729557	-3.729555
O	6.030824	6.033126	-1.425986
O	10.089318	5.484722	-0.877582
O	6.030824	7.788291	-3.181151
O	7.786445	7.788291	-1.425986
O	7.786445	6.033126	-3.181151
Rb	4.605756	4.607139	0.000000
Rb	6.908629	2.303570	-2.303569
Rh	3.454314	3.455355	-3.455353
Rh	8.060071	5.758924	-1.151785
Rh	5.757198	5.758924	-3.455353
Rh	10.362954	3.455355	-1.151785
O	-5.483562	0.877583	-8.336695
O	-0.877805	-0.877583	-5.484722
O	-3.727950	-0.877582	-8.336695
O	-3.180689	1.425986	-6.033126
O	0.877806	0.877583	-5.484722
O	-3.180689	3.181151	-7.788291
O	-1.425067	3.181151	-6.033126
O	-1.425067	1.425986	-7.788291
Rb	-4.605756	0.000000	-4.607139
Rb	-2.302883	-2.303569	-6.910708
Rh	-5.757198	-1.151784	-8.062493
Rh	-1.151441	1.151785	-5.758924
Rh	-3.454314	1.151784	-8.062493
Rh	1.151442	-1.151785	-5.758924
O	-0.877806	5.484722	-8.336695
O	3.727951	3.729557	-5.484722
O	0.877806	3.729557	-8.336695
O	1.425068	6.033126	-6.033126
O	5.483562	5.484722	-5.484722
O	1.425068	7.788291	-7.788291
O	3.180689	7.788291	-6.033126
O	3.180689	6.033126	-7.788291
Rb	0.000000	4.607139	-4.607139
Rb	2.302873	2.303570	-6.910708
Rh	-1.151442	3.455355	-8.062493
Rh	3.454315	5.758924	-5.758924
Rh	1.151442	5.758924	-8.062493
Rh	5.757198	3.455355	-5.758924
O	3.727950	-3.729557	-3.729555
O	8.333707	-5.484722	-0.877582
O	5.483562	-5.484722	-3.729555
O	6.030824	-3.181153	-1.425986
O	10.089318	-3.729557	-0.877582
O	6.030824	-1.425988	-3.181151
O	7.786445	-1.425988	-1.425986
O	7.786445	-3.181153	-3.181151
Rb	4.605756	-4.607139	0.000000
Rb	6.908629	-6.910708	-2.303569
Rh	3.454314	-5.758924	-3.455353
Rh	8.060071	-3.455355	-1.151785
Rh	5.757198	-3.455355	-3.455353
Rh	10.362954	-5.758924	-1.151785
O	8.333706	0.877583	-3.729555
O	12.939463	-0.877583	-0.877582
O	10.089318	-0.877582	-3.729555
O	10.636580	1.425986	-1.425986
O	14.695074	0.877583	-0.877582
O	10.636580	3.181151	-3.181151
O	12.392201	3.181151	-1.425986
O	12.392201	1.425986	-3.181151
Rb	9.211512	0.000000	0.000000
Rb	11.514385	-2.303569	-2.303569
Rh	8.060070	-1.151784	-3.455353
Rh	12.665827	1.151785	-1.151785
Rh	10.362954	1.151784	-3.455353
Rh	14.968710	-1.151785	-1.151785
O	-0.877806	-3.729557	-8.336695
O	3.727951	-5.484722	-5.484722
O	0.877806	-5.484722	-8.336695
O	1.425068	-3.181153	-6.033126
O	5.483562	-3.729557	-5.484722
O	1.425068	-1.425988	-7.788291
O	3.180689	-1.425988	-6.033126
O	3.180689	-3.181153	-7.788291
Rb	0.000000	-4.607139	-4.607139
Rb	2.302873	-6.910708	-6.910708
Rh	-1.151442	-5.758924	-8.062493
Rh	3.454315	-3.455355	-5.758924
Rh	1.151442	-3.455355	-8.062493
Rh	5.757198	-5.758924	-5.758924
O	3.727950	0.877583	-8.336695
O	8.333707	-0.877583	-5.484722
O	5.483562	-0.877582	-8.336695
O	6.030824	1.425986	-6.033126
O	10.089318	0.877583	-5.484722
O	6.030824	3.181151	-7.788291
O	7.786445	3.181151	-6.033126
O	7.786445	1.425986	-7.788291
Rb	4.605756	0.000000	-4.607139
Rb	6.908629	-2.303569	-6.910708
Rh	3.454314	-1.151784	-8.062493
Rh	8.060071	1.151785	-5.758924
Rh	5.757198	1.151784	-8.062493
Rh	10.362954	-1.151785	-5.758924
