176

O	5.365733	3.794146	9.293722
O	3.219440	2.276488	5.576233
O	1.990615	4.014308	7.704620
O	4.136908	5.531967	11.422109
O	4.448265	0.538667	7.704620
O	5.677089	4.014308	5.576233
O	0.761790	0.538667	5.576233
O	1.990615	4.014308	3.447846
O	4.448265	0.538667	3.447846
O	7.823383	5.531967	9.293722
O	2.908084	2.056326	9.293722
O	6.594558	2.056326	7.165335
O	6.594558	2.056326	11.422109
O	4.136908	5.531967	7.165335
Y	4.292587	3.035317	7.434978
Y	4.292587	3.035317	3.717489
Y	1.073147	3.035317	5.576233
Y	3.219440	0.000000	5.576233
Sn	0.000000	0.000000	0.000000
Sn	0.000000	0.000000	3.717489
Sn	3.219440	0.000000	1.858744
Sn	1.073147	3.035317	1.858744
O	5.365733	3.794146	16.728700
O	3.219440	2.276488	13.011211
O	1.990615	4.014308	15.139598
O	4.136908	5.531967	18.857087
O	4.448265	0.538667	15.139598
O	5.677089	4.014308	13.011211
O	0.761790	0.538667	13.011211
O	1.990615	4.014308	10.882824
O	4.448265	0.538667	10.882824
O	7.823383	5.531967	16.728700
O	2.908084	2.056326	16.728700
O	6.594558	2.056326	14.600313
O	6.594558	2.056326	18.857087
O	4.136908	5.531967	14.600313
Y	4.292587	3.035317	14.869956
Y	4.292587	3.035317	11.152467
Y	1.073147	3.035317	13.011211
Y	3.219440	0.000000	13.011211
Sn	0.000000	0.000000	7.434978
Sn	0.000000	0.000000	11.152467
Sn	3.219440	0.000000	9.293722
Sn	1.073147	3.035317	9.293722
O	7.512026	9.864780	13.011211
O	5.365733	8.347122	9.293722
O	4.136908	10.084943	11.422109
O	6.283202	11.602601	15.139598
O	6.594558	6.609301	11.422109
O	7.823383	10.084943	9.293722
O	2.908084	6.609301	9.293722
O	4.136908	10.084943	7.165335
O	6.594558	6.609301	7.165335
O	9.969676	11.602601	13.011211
O	5.054377	8.126960	13.011211
O	8.740851	8.126960	10.882824
O	8.740851	8.126960	15.139598
O	6.283202	11.602601	10.882824
Y	6.438880	9.105951	11.152467
Y	6.438880	9.105951	7.434978
Y	3.219440	9.105951	9.293722
Y	5.365733	6.070634	9.293722
Sn	2.146293	6.070634	3.717489
Sn	2.146293	6.070634	7.434978
Sn	5.365733	6.070634	5.576233
Sn	3.219440	9.105951	5.576233
O	7.512026	9.864780	20.446189
O	5.365733	8.347122	16.728700
O	4.136908	10.084943	18.857087
O	6.283202	11.602601	22.574576
O	6.594558	6.609301	18.857087
O	7.823383	10.084943	16.728700
O	2.908084	6.609301	16.728700
O	4.136908	10.084943	14.600313
O	6.594558	6.609301	14.600313
O	9.969676	11.602601	20.446189
O	5.054377	8.126960	20.446189
O	8.740851	8.126960	18.317802
O	8.740851	8.126960	22.574576
O	6.283202	11.602601	18.317802
Y	6.438880	9.105951	18.587445
Y	6.438880	9.105951	14.869956
Y	3.219440	9.105951	16.728700
Y	5.365733	6.070634	16.728700
Sn	2.146293	6.070634	11.152467
Sn	2.146293	6.070634	14.869956
Sn	5.365733	6.070634	13.011211
Sn	3.219440	9.105951	13.011211
O	11.804613	3.794146	13.011211
O	9.658320	2.276488	9.293722
O	8.429495	4.014308	11.422109
O	10.575788	5.531967	15.139598
O	10.887144	0.538667	11.422109
O	12.115969	4.014308	9.293722
O	7.200670	0.538667	9.293722
O	8.429495	4.014308	7.165335
O	10.887144	0.538667	7.165335
O	14.262263	5.531967	13.011211
O	9.346963	2.056326	13.011211
O	13.033438	2.056326	10.882824
O	13.033438	2.056326	15.139598
O	10.575788	5.531967	10.882824
Y	10.731466	3.035317	11.152467
Y	10.731466	3.035317	7.434978
Y	7.512026	3.035317	9.293722
Y	9.658320	0.000000	9.293722
Sn	6.438880	0.000000	3.717489
Sn	6.438880	0.000000	7.434978
Sn	9.658320	0.000000	5.576233
Sn	7.512026	3.035317	5.576233
O	11.804613	3.794146	20.446189
O	9.658320	2.276488	16.728700
O	8.429495	4.014308	18.857087
O	10.575788	5.531967	22.574576
O	10.887144	0.538667	18.857087
O	12.115969	4.014308	16.728700
O	7.200670	0.538667	16.728700
O	8.429495	4.014308	14.600313
O	10.887144	0.538667	14.600313
O	14.262263	5.531967	20.446189
O	9.346963	2.056326	20.446189
O	13.033438	2.056326	18.317802
O	13.033438	2.056326	22.574576
O	10.575788	5.531967	18.317802
Y	10.731466	3.035317	18.587445
Y	10.731466	3.035317	14.869956
Y	7.512026	3.035317	16.728700
Y	9.658320	0.000000	16.728700
Sn	6.438880	0.000000	11.152467
Sn	6.438880	0.000000	14.869956
Sn	9.658320	0.000000	13.011211
Sn	7.512026	3.035317	13.011211
O	13.950906	9.864780	16.728700
O	11.804613	8.347122	13.011211
O	10.575788	10.084943	15.139598
O	12.722081	11.602601	18.857087
O	13.033438	6.609301	15.139598
O	14.262263	10.084943	13.011211
O	9.346963	6.609301	13.011211
O	10.575788	10.084943	10.882824
O	13.033438	6.609301	10.882824
O	16.408556	11.602601	16.728700
O	11.493257	8.126960	16.728700
O	15.179731	8.126960	14.600313
O	15.179731	8.126960	18.857087
O	12.722081	11.602601	14.600313
Y	12.877760	9.105951	14.869956
Y	12.877760	9.105951	11.152467
Y	9.658320	9.105951	13.011211
Y	11.804613	6.070634	13.011211
Sn	8.585173	6.070634	7.434978
Sn	8.585173	6.070634	11.152467
Sn	11.804613	6.070634	9.293722
Sn	9.658320	9.105951	9.293722
O	13.950906	9.864780	24.163678
O	11.804613	8.347122	20.446189
O	10.575788	10.084943	22.574576
O	12.722081	11.602601	26.292065
O	13.033438	6.609301	22.574576
O	14.262263	10.084943	20.446189
O	9.346963	6.609301	20.446189
O	10.575788	10.084943	18.317802
O	13.033438	6.609301	18.317802
O	16.408556	11.602601	24.163678
O	11.493257	8.126960	24.163678
O	15.179731	8.126960	22.035291
O	15.179731	8.126960	26.292065
O	12.722081	11.602601	22.035291
Y	12.877760	9.105951	22.304934
Y	12.877760	9.105951	18.587445
Y	9.658320	9.105951	20.446189
Y	11.804613	6.070634	20.446189
Sn	8.585173	6.070634	14.869956
Sn	8.585173	6.070634	18.587445
Sn	11.804613	6.070634	16.728700
Sn	9.658320	9.105951	16.728700
