40

Gd	2.212962	2.212962	2.212962
O	2.212962	2.212962	0.000000
O	2.212962	0.000000	2.212962
O	0.000000	2.212962	2.212962
Pb	0.000000	0.000000	0.000000
Gd	2.212962	2.212962	6.638885
O	2.212962	2.212962	4.425924
O	2.212962	0.000000	6.638885
O	0.000000	2.212962	6.638885
Pb	0.000000	0.000000	4.425924
Gd	2.212962	6.638885	2.212962
O	2.212962	6.638885	0.000000
O	2.212962	4.425924	2.212962
O	0.000000	6.638885	2.212962
Pb	0.000000	4.425924	0.000000
Gd	2.212962	6.638885	6.638885
O	2.212962	6.638885	4.425924
O	2.212962	4.425924	6.638885
O	0.000000	6.638885	6.638885
Pb	0.000000	4.425924	4.425924
Gd	6.638885	2.212962	2.212962
O	6.638885	2.212962	0.000000
O	6.638885	0.000000	2.212962
O	4.425924	2.212962	2.212962
Pb	4.425924	0.000000	0.000000
Gd	6.638885	2.212962	6.638885
O	6.638885	2.212962	4.425924
O	6.638885	0.000000	6.638885
O	4.425924	2.212962	6.638885
Pb	4.425924	0.000000	4.425924
Gd	6.638885	6.638885	2.212962
O	6.638885	6.638885	0.000000
O	6.638885	4.425924	2.212962
O	4.425924	6.638885	2.212962
Pb	4.425924	4.425924	0.000000
Gd	6.638885	6.638885	6.638885
O	6.638885	6.638885	4.425924
O	6.638885	4.425924	6.638885
O	4.425924	6.638885	6.638885
Pb	4.425924	4.425924	4.425924
