40

O	1.954434	1.954434	0.000000
O	0.000000	1.954434	1.954434
O	1.954434	0.000000	1.954434
Sr	0.000000	0.000000	0.000000
Ti	1.954434	1.954434	1.954434
O	1.954434	1.954434	3.908868
O	0.000000	1.954434	5.863302
O	1.954434	0.000000	5.863302
Sr	0.000000	0.000000	3.908868
Ti	1.954434	1.954434	5.863302
O	1.954434	5.863302	0.000000
O	0.000000	5.863302	1.954434
O	1.954434	3.908868	1.954434
Sr	0.000000	3.908868	0.000000
Ti	1.954434	5.863302	1.954434
O	1.954434	5.863302	3.908868
O	0.000000	5.863302	5.863302
O	1.954434	3.908868	5.863302
Sr	0.000000	3.908868	3.908868
Ti	1.954434	5.863302	5.863302
O	5.863302	1.954434	0.000000
O	3.908868	1.954434	1.954434
O	5.863302	0.000000	1.954434
Sr	3.908868	0.000000	0.000000
Ti	5.863302	1.954434	1.954434
O	5.863302	1.954434	3.908868
O	3.908868	1.954434	5.863302
O	5.863302	0.000000	5.863302
Sr	3.908868	0.000000	3.908868
Ti	5.863302	1.954434	5.863302
O	5.863302	5.863302	0.000000
O	3.908868	5.863302	1.954434
O	5.863302	3.908868	1.954434
Sr	3.908868	3.908868	0.000000
Ti	5.863302	5.863302	1.954434
O	5.863302	5.863302	3.908868
O	3.908868	5.863302	5.863302
O	5.863302	3.908868	5.863302
Sr	3.908868	3.908868	3.908868
Ti	5.863302	5.863302	5.863302
