40

O	0.000000	2.201019	2.201019
O	2.201019	0.000000	2.201019
O	2.201019	2.201019	0.000000
Sr	2.201019	2.201019	2.201019
Ti	0.000000	0.000000	0.000000
O	0.000000	2.201019	6.603058
O	2.201019	0.000000	6.603058
O	2.201019	2.201019	4.402039
Sr	2.201019	2.201019	6.603058
Ti	0.000000	0.000000	4.402039
O	0.000000	6.603058	2.201019
O	2.201019	4.402039	2.201019
O	2.201019	6.603058	0.000000
Sr	2.201019	6.603058	2.201019
Ti	0.000000	4.402039	0.000000
O	0.000000	6.603058	6.603058
O	2.201019	4.402039	6.603058
O	2.201019	6.603058	4.402039
Sr	2.201019	6.603058	6.603058
Ti	0.000000	4.402039	4.402039
O	4.402039	2.201019	2.201019
O	6.603058	0.000000	2.201019
O	6.603058	2.201019	0.000000
Sr	6.603058	2.201019	2.201019
Ti	4.402039	0.000000	0.000000
O	4.402039	2.201019	6.603058
O	6.603058	0.000000	6.603058
O	6.603058	2.201019	4.402039
Sr	6.603058	2.201019	6.603058
Ti	4.402039	0.000000	4.402039
O	4.402039	6.603058	2.201019
O	6.603058	4.402039	2.201019
O	6.603058	6.603058	0.000000
Sr	6.603058	6.603058	2.201019
Ti	4.402039	4.402039	0.000000
O	4.402039	6.603058	6.603058
O	6.603058	4.402039	6.603058
O	6.603058	6.603058	4.402039
Sr	6.603058	6.603058	6.603058
Ti	4.402039	4.402039	4.402039
