40

Ac	2.287340	2.287340	2.287340
As	0.000000	0.000000	0.000000
O	2.287340	2.287340	0.000000
O	2.287340	0.000000	2.287340
O	0.000000	2.287340	2.287340
Ac	2.287340	2.287340	6.862022
As	0.000000	0.000000	4.574682
O	2.287340	2.287340	4.574682
O	2.287340	0.000000	6.862022
O	0.000000	2.287340	6.862022
Ac	2.287340	6.862022	2.287340
As	0.000000	4.574682	0.000000
O	2.287340	6.862022	0.000000
O	2.287340	4.574682	2.287340
O	0.000000	6.862022	2.287340
Ac	2.287340	6.862022	6.862022
As	0.000000	4.574682	4.574682
O	2.287340	6.862022	4.574682
O	2.287340	4.574682	6.862022
O	0.000000	6.862022	6.862022
Ac	6.862022	2.287340	2.287340
As	4.574682	0.000000	0.000000
O	6.862022	2.287340	0.000000
O	6.862022	0.000000	2.287340
O	4.574682	2.287340	2.287340
Ac	6.862022	2.287340	6.862022
As	4.574682	0.000000	4.574682
O	6.862022	2.287340	4.574682
O	6.862022	0.000000	6.862022
O	4.574682	2.287340	6.862022
Ac	6.862022	6.862022	2.287340
As	4.574682	4.574682	0.000000
O	6.862022	6.862022	0.000000
O	6.862022	4.574682	2.287340
O	4.574682	6.862022	2.287340
Ac	6.862022	6.862022	6.862022
As	4.574682	4.574682	4.574682
O	6.862022	6.862022	4.574682
O	6.862022	4.574682	6.862022
O	4.574682	6.862022	6.862022
