40

As	0.000000	0.000000	0.000000
Hg	2.091384	2.091384	2.091384
O	0.000000	2.091384	2.091384
O	2.091384	0.000000	2.091384
O	2.091384	2.091384	0.000000
As	0.000000	0.000000	4.182767
Hg	2.091384	2.091384	6.274151
O	0.000000	2.091384	6.274151
O	2.091384	0.000000	6.274151
O	2.091384	2.091384	4.182767
As	0.000000	4.182767	0.000000
Hg	2.091384	6.274151	2.091384
O	0.000000	6.274151	2.091384
O	2.091384	4.182767	2.091384
O	2.091384	6.274151	0.000000
As	0.000000	4.182767	4.182767
Hg	2.091384	6.274151	6.274151
O	0.000000	6.274151	6.274151
O	2.091384	4.182767	6.274151
O	2.091384	6.274151	4.182767
As	4.182767	0.000000	0.000000
Hg	6.274151	2.091384	2.091384
O	4.182767	2.091384	2.091384
O	6.274151	0.000000	2.091384
O	6.274151	2.091384	0.000000
As	4.182767	0.000000	4.182767
Hg	6.274151	2.091384	6.274151
O	4.182767	2.091384	6.274151
O	6.274151	0.000000	6.274151
O	6.274151	2.091384	4.182767
As	4.182767	4.182767	0.000000
Hg	6.274151	6.274151	2.091384
O	4.182767	6.274151	2.091384
O	6.274151	4.182767	2.091384
O	6.274151	6.274151	0.000000
As	4.182767	4.182767	4.182767
Hg	6.274151	6.274151	6.274151
O	4.182767	6.274151	6.274151
O	6.274151	4.182767	6.274151
O	6.274151	6.274151	4.182767
