40

O	0.000000	1.912554	1.912554
O	1.912554	0.000000	1.912554
O	1.912554	1.912554	0.000000
Sn	0.000000	0.000000	0.000000
Zn	1.912554	1.912554	1.912554
O	0.000000	1.912554	5.737662
O	1.912554	0.000000	5.737662
O	1.912554	1.912554	3.825108
Sn	0.000000	0.000000	3.825108
Zn	1.912554	1.912554	5.737662
O	0.000000	5.737662	1.912554
O	1.912554	3.825108	1.912554
O	1.912554	5.737662	0.000000
Sn	0.000000	3.825108	0.000000
Zn	1.912554	5.737662	1.912554
O	0.000000	5.737662	5.737662
O	1.912554	3.825108	5.737662
O	1.912554	5.737662	3.825108
Sn	0.000000	3.825108	3.825108
Zn	1.912554	5.737662	5.737662
O	3.825108	1.912554	1.912554
O	5.737662	0.000000	1.912554
O	5.737662	1.912554	0.000000
Sn	3.825108	0.000000	0.000000
Zn	5.737662	1.912554	1.912554
O	3.825108	1.912554	5.737662
O	5.737662	0.000000	5.737662
O	5.737662	1.912554	3.825108
Sn	3.825108	0.000000	3.825108
Zn	5.737662	1.912554	5.737662
O	3.825108	5.737662	1.912554
O	5.737662	3.825108	1.912554
O	5.737662	5.737662	0.000000
Sn	3.825108	3.825108	0.000000
Zn	5.737662	5.737662	1.912554
O	3.825108	5.737662	5.737662
O	5.737662	3.825108	5.737662
O	5.737662	5.737662	3.825108
Sn	3.825108	3.825108	3.825108
Zn	5.737662	5.737662	5.737662
