112

As	0.000000	0.000000	0.000000
As	2.204974	-2.206376	-2.206376
O	3.393216	-1.017148	-1.017148
O	-1.016733	1.017148	-3.395603
O	1.016733	-1.017148	-3.395603
O	1.188241	1.189228	-1.189228
O	5.426681	1.017148	-1.017148
O	1.188241	3.223524	-3.223524
O	3.221707	3.223524	-1.189228
O	3.221707	1.189228	-3.223524
Tc	-1.102487	-1.103188	-3.309564
Tc	3.307461	1.103188	-1.103188
Tc	5.512435	-1.103188	-1.103188
Tc	1.102487	1.103188	-3.309564
As	4.409948	4.412752	0.000000
As	6.614923	2.206376	-2.206376
O	7.803164	3.395603	-1.017148
O	3.393216	5.429900	-3.395603
O	5.426681	3.395603	-3.395603
O	5.598190	5.601979	-1.189228
O	9.836629	5.429900	-1.017148
O	5.598190	7.636276	-3.223524
O	7.631655	7.636276	-1.189228
O	7.631655	5.601979	-3.223524
Tc	3.307461	3.309564	-3.309564
Tc	7.717410	5.515940	-1.103188
Tc	9.922384	3.309564	-1.103188
Tc	5.512435	5.515940	-3.309564
As	-4.409948	0.000000	-4.412752
As	-2.204974	-2.206376	-6.619128
O	-1.016733	-1.017148	-5.429900
O	-5.426681	1.017148	-7.808355
O	-3.393216	-1.017148	-7.808355
O	-3.221707	1.189228	-5.601979
O	1.016733	1.017148	-5.429900
O	-3.221707	3.223524	-7.636276
O	-1.188241	3.223524	-5.601979
O	-1.188241	1.189228	-7.636276
Tc	-5.512435	-1.103188	-7.722316
Tc	-1.102487	1.103188	-5.515940
Tc	1.102487	-1.103188	-5.515940
Tc	-3.307461	1.103188	-7.722316
As	0.000000	4.412752	-4.412752
As	2.204974	2.206376	-6.619128
O	3.393216	3.395603	-5.429900
O	-1.016733	5.429900	-7.808355
O	1.016733	3.395603	-7.808355
O	1.188241	5.601979	-5.601979
O	5.426681	5.429900	-5.429900
O	1.188241	7.636276	-7.636276
O	3.221707	7.636276	-5.601979
O	3.221707	5.601979	-7.636276
Tc	-1.102487	3.309564	-7.722316
Tc	3.307461	5.515940	-5.515940
Tc	5.512435	3.309564	-5.515940
Tc	1.102487	5.515940	-7.722316
As	4.409948	-4.412752	0.000000
As	6.614923	-6.619128	-2.206376
O	7.803164	-5.429900	-1.017148
O	3.393216	-3.395603	-3.395603
O	5.426681	-5.429900	-3.395603
O	5.598190	-3.223524	-1.189228
O	9.836629	-3.395603	-1.017148
O	5.598190	-1.189228	-3.223524
O	7.631655	-1.189228	-1.189228
O	7.631655	-3.223524	-3.223524
Tc	3.307461	-5.515940	-3.309564
Tc	7.717410	-3.309564	-1.103188
Tc	9.922384	-5.515940	-1.103188
Tc	5.512435	-3.309564	-3.309564
As	8.819897	0.000000	0.000000
As	11.024871	-2.206376	-2.206376
O	12.213112	-1.017148	-1.017148
O	7.803164	1.017148	-3.395603
O	9.836629	-1.017148	-3.395603
O	10.008138	1.189228	-1.189228
O	14.246578	1.017148	-1.017148
O	10.008138	3.223524	-3.223524
O	12.041604	3.223524	-1.189228
O	12.041604	1.189228	-3.223524
Tc	7.717410	-1.103188	-3.309564
Tc	12.127358	1.103188	-1.103188
Tc	14.332332	-1.103188	-1.103188
Tc	9.922384	1.103188	-3.309564
As	0.000000	-4.412752	-4.412752
As	2.204974	-6.619128	-6.619128
O	3.393216	-5.429900	-5.429900
O	-1.016733	-3.395603	-7.808355
O	1.016733	-5.429900	-7.808355
O	1.188241	-3.223524	-5.601979
O	5.426681	-3.395603	-5.429900
O	1.188241	-1.189228	-7.636276
O	3.221707	-1.189228	-5.601979
O	3.221707	-3.223524	-7.636276
Tc	-1.102487	-5.515940	-7.722316
Tc	3.307461	-3.309564	-5.515940
Tc	5.512435	-5.515940	-5.515940
Tc	1.102487	-3.309564	-7.722316
As	4.409948	0.000000	-4.412752
As	6.614923	-2.206376	-6.619128
O	7.803164	-1.017148	-5.429900
O	3.393216	1.017148	-7.808355
O	5.426681	-1.017148	-7.808355
O	5.598190	1.189228	-5.601979
O	9.836629	1.017148	-5.429900
O	5.598190	3.223524	-7.636276
O	7.631655	3.223524	-5.601979
O	7.631655	1.189228	-7.636276
Tc	3.307461	-1.103188	-7.722316
Tc	7.717410	1.103188	-5.515940
Tc	9.922384	-1.103188	-5.515940
Tc	5.512435	1.103188	-7.722316
