112

Ba	0.000000	0.000000	0.000000
Ba	2.543239	-2.543841	-2.543841
O	4.009006	-1.077153	-1.077153
O	-1.077472	1.077153	-4.010539
O	1.077472	-1.077153	-4.010539
O	1.465767	1.466698	-1.466698
O	6.163950	1.077153	-1.077153
O	1.465767	3.620994	-3.620994
O	3.620711	3.620994	-1.466698
O	3.620711	1.466698	-3.620994
Sm	-1.271624	-1.271926	-3.815767
Sm	6.358102	-1.271926	-1.271926
Sm	1.271624	1.271926	-3.815767
Sm	3.814863	1.271926	-1.271926
Ba	5.086479	5.087690	0.000000
Ba	7.629718	2.543849	-2.543841
O	9.095485	4.010537	-1.077153
O	4.009007	6.164843	-4.010539
O	6.163951	4.010537	-4.010539
O	6.552246	6.554388	-1.466698
O	11.250429	6.164843	-1.077153
O	6.552246	8.708684	-3.620994
O	8.707190	8.708684	-1.466698
O	8.707190	6.554388	-3.620994
Sm	3.814855	3.815764	-3.815767
Sm	11.444581	3.815764	-1.271926
Sm	6.358103	6.359615	-3.815767
Sm	8.901342	6.359615	-1.271926
Ba	-5.086479	0.000000	-5.087690
Ba	-2.543240	-2.543841	-7.631531
O	-1.077473	-1.077153	-6.164843
O	-6.163951	1.077153	-9.098229
O	-4.009007	-1.077153	-9.098229
O	-3.620712	1.466698	-6.554388
O	1.077471	1.077153	-6.164843
O	-3.620712	3.620994	-8.708684
O	-1.465768	3.620994	-6.554388
O	-1.465768	1.466698	-8.708684
Sm	-6.358103	-1.271926	-8.903457
Sm	1.271623	-1.271926	-6.359615
Sm	-3.814855	1.271926	-8.903457
Sm	-1.271616	1.271926	-6.359615
Ba	0.000000	5.087690	-5.087690
Ba	2.543239	2.543849	-7.631531
O	4.009006	4.010537	-6.164843
O	-1.077472	6.164843	-9.098229
O	1.077472	4.010537	-9.098229
O	1.465767	6.554388	-6.554388
O	6.163950	6.164843	-6.164843
O	1.465767	8.708684	-8.708684
O	3.620711	8.708684	-6.554388
O	3.620711	6.554388	-8.708684
Sm	-1.271624	3.815764	-8.903457
Sm	6.358102	3.815764	-6.359615
Sm	1.271624	6.359615	-8.903457
Sm	3.814863	6.359615	-6.359615
Ba	5.086479	-5.087690	0.000000
Ba	7.629718	-7.631531	-2.543841
O	9.095485	-6.164843	-1.077153
O	4.009007	-4.010537	-4.010539
O	6.163951	-6.164843	-4.010539
O	6.552246	-3.620992	-1.466698
O	11.250429	-4.010537	-1.077153
O	6.552246	-1.466695	-3.620994
O	8.707190	-1.466695	-1.466698
O	8.707190	-3.620992	-3.620994
Sm	3.814855	-6.359615	-3.815767
Sm	11.444581	-6.359615	-1.271926
Sm	6.358103	-3.815764	-3.815767
Sm	8.901342	-3.815764	-1.271926
Ba	10.172958	0.000000	0.000000
Ba	12.716197	-2.543841	-2.543841
O	14.181963	-1.077153	-1.077153
O	9.095486	1.077153	-4.010539
O	11.250430	-1.077153	-4.010539
O	11.638725	1.466698	-1.466698
O	16.336908	1.077153	-1.077153
O	11.638725	3.620994	-3.620994
O	13.793669	3.620994	-1.466698
O	13.793669	1.466698	-3.620994
Sm	8.901334	-1.271926	-3.815767
Sm	16.531060	-1.271926	-1.271926
Sm	11.444582	1.271926	-3.815767
Sm	13.987821	1.271926	-1.271926
Ba	0.000000	-5.087690	-5.087690
Ba	2.543239	-7.631531	-7.631531
O	4.009006	-6.164843	-6.164843
O	-1.077472	-4.010537	-9.098229
O	1.077472	-6.164843	-9.098229
O	1.465767	-3.620992	-6.554388
O	6.163950	-4.010537	-6.164843
O	1.465767	-1.466695	-8.708684
O	3.620711	-1.466695	-6.554388
O	3.620711	-3.620992	-8.708684
Sm	-1.271624	-6.359615	-8.903457
Sm	6.358102	-6.359615	-6.359615
Sm	1.271624	-3.815764	-8.903457
Sm	3.814863	-3.815764	-6.359615
Ba	5.086479	0.000000	-5.087690
Ba	7.629718	-2.543841	-7.631531
O	9.095485	-1.077153	-6.164843
O	4.009007	1.077153	-9.098229
O	6.163951	-1.077153	-9.098229
O	6.552246	1.466698	-6.554388
O	11.250429	1.077153	-6.164843
O	6.552246	3.620994	-8.708684
O	8.707190	3.620994	-6.554388
O	8.707190	1.466698	-8.708684
Sm	3.814855	-1.271926	-8.903457
Sm	11.444581	-1.271926	-6.359615
Sm	6.358103	1.271926	-8.903457
Sm	8.901342	1.271926	-6.359615
