40

Ba	2.543606	2.543606	2.543606
Cs	0.000000	0.000000	0.000000
O	0.000000	2.543606	2.543606
O	2.543606	0.000000	2.543606
O	2.543606	2.543606	0.000000
Ba	2.543606	2.543606	7.630817
Cs	0.000000	0.000000	5.087211
O	0.000000	2.543606	7.630817
O	2.543606	0.000000	7.630817
O	2.543606	2.543606	5.087211
Ba	2.543606	7.630817	2.543606
Cs	0.000000	5.087211	0.000000
O	0.000000	7.630817	2.543606
O	2.543606	5.087211	2.543606
O	2.543606	7.630817	0.000000
Ba	2.543606	7.630817	7.630817
Cs	0.000000	5.087211	5.087211
O	0.000000	7.630817	7.630817
O	2.543606	5.087211	7.630817
O	2.543606	7.630817	5.087211
Ba	7.630817	2.543606	2.543606
Cs	5.087211	0.000000	0.000000
O	5.087211	2.543606	2.543606
O	7.630817	0.000000	2.543606
O	7.630817	2.543606	0.000000
Ba	7.630817	2.543606	7.630817
Cs	5.087211	0.000000	5.087211
O	5.087211	2.543606	7.630817
O	7.630817	0.000000	7.630817
O	7.630817	2.543606	5.087211
Ba	7.630817	7.630817	2.543606
Cs	5.087211	5.087211	0.000000
O	5.087211	7.630817	2.543606
O	7.630817	5.087211	2.543606
O	7.630817	7.630817	0.000000
Ba	7.630817	7.630817	7.630817
Cs	5.087211	5.087211	5.087211
O	5.087211	7.630817	7.630817
O	7.630817	5.087211	7.630817
O	7.630817	7.630817	5.087211
