416

Ge	5.147340	1.078408	0.980528
Ge	3.039464	7.255216	1.029468
Ge	0.980528	5.147340	1.078408
Ge	7.255216	1.029468	3.039464
Ge	5.196280	3.137344	3.088404
Ge	3.088404	5.196280	3.137344
Ge	7.206276	7.157336	5.098400
Ge	1.078408	0.980528	5.147340
Ge	3.137344	3.088404	5.196280
Ge	5.098400	7.206276	7.157336
Ge	7.157336	5.098400	7.206276
Ge	1.029468	3.039464	7.255216
O	7.042931	0.937575	1.220126
O	7.396934	5.239233	0.866123
O	1.220126	7.042931	0.937575
O	5.035701	7.317915	0.917829
O	3.251749	0.838810	1.121361
O	1.121361	3.251749	0.838810
O	5.055447	2.897746	1.192813
O	2.976765	5.258979	1.141107
O	5.258979	1.141107	2.976765
O	4.983995	4.956682	2.996511
O	3.180297	7.015618	2.925059
O	7.114383	7.369621	3.279062
O	0.838810	1.121361	3.251749
O	7.015618	2.925059	3.180297
O	3.200043	3.200043	3.200043
O	1.192813	5.055447	2.897746
O	7.317915	0.917829	5.035701
O	2.897746	1.192813	5.055447
O	4.956682	2.996511	4.983995
O	5.310685	7.298169	5.337998
O	1.141107	2.976765	5.258979
O	2.996511	4.983995	4.956682
O	7.298169	5.337998	5.310685
O	0.866123	7.396934	5.239233
O	0.937575	1.220126	7.042931
O	5.239233	0.866123	7.396934
O	7.369621	3.279062	7.114383
O	7.094637	7.094637	7.094637
O	2.925059	3.180297	7.015618
O	0.917829	5.035701	7.317915
O	5.337998	5.310685	7.298169
O	3.279062	7.114383	7.369621
Zn	0.010033	0.010033	0.010033
Zn	2.048903	2.048903	2.048903
Zn	6.186841	6.166775	2.068969
Zn	-0.010033	4.127905	4.107839
Zn	4.107839	-0.010033	4.127905
Zn	2.068969	6.186841	6.166775
Zn	6.166775	2.068969	6.186841
Zn	4.127905	4.107839	-0.010033
Ge	5.147340	1.078408	9.216272
Ge	3.039464	7.255216	9.265212
Ge	0.980528	5.147340	9.314152
Ge	7.255216	1.029468	11.275208
Ge	5.196280	3.137344	11.324148
Ge	3.088404	5.196280	11.373088
Ge	7.206276	7.157336	13.334144
Ge	1.078408	0.980528	13.383084
Ge	3.137344	3.088404	13.432024
Ge	5.098400	7.206276	15.393080
Ge	7.157336	5.098400	15.442020
Ge	1.029468	3.039464	15.490960
O	7.042931	0.937575	9.455870
O	7.396934	5.239233	9.101867
O	1.220126	7.042931	9.173319
O	5.035701	7.317915	9.153573
O	3.251749	0.838810	9.357105
O	1.121361	3.251749	9.074554
O	5.055447	2.897746	9.428557
O	2.976765	5.258979	9.376851
O	5.258979	1.141107	11.212509
O	4.983995	4.956682	11.232255
O	3.180297	7.015618	11.160803
O	7.114383	7.369621	11.514806
O	0.838810	1.121361	11.487493
O	7.015618	2.925059	11.416041
O	3.200043	3.200043	11.435787
O	1.192813	5.055447	11.133490
O	7.317915	0.917829	13.271445
O	2.897746	1.192813	13.291191
O	4.956682	2.996511	13.219739
O	5.310685	7.298169	13.573742
O	1.141107	2.976765	13.494723
O	2.996511	4.983995	13.192426
O	7.298169	5.337998	13.546429
O	0.866123	7.396934	13.474977
O	0.937575	1.220126	15.278676
O	5.239233	0.866123	15.632678
O	7.369621	3.279062	15.350127
O	7.094637	7.094637	15.330381
O	2.925059	3.180297	15.251362
O	0.917829	5.035701	15.553659
O	5.337998	5.310685	15.533913
O	3.279062	7.114383	15.605365
Zn	0.010033	0.010033	8.245777
Zn	2.048903	2.048903	10.284647
Zn	6.186841	6.166775	10.304713
Zn	-0.010033	4.127905	12.343583
Zn	4.107839	-0.010033	12.363649
Zn	2.068969	6.186841	14.402519
Zn	6.166775	2.068969	14.422585
Zn	4.127905	4.107839	8.225711
Ge	5.147340	9.314152	0.980528
Ge	3.039464	15.490960	1.029468
Ge	0.980528	13.383084	1.078408
Ge	7.255216	9.265212	3.039464
Ge	5.196280	11.373088	3.088404
Ge	3.088404	13.432024	3.137344
Ge	7.206276	15.393080	5.098400
Ge	1.078408	9.216272	5.147340
Ge	3.137344	11.324148	5.196280
Ge	5.098400	15.442020	7.157336
Ge	7.157336	13.334144	7.206276
Ge	1.029468	11.275208	7.255216
O	7.042931	9.173319	1.220126
O	7.396934	13.474977	0.866123
O	1.220126	15.278676	0.937575
O	5.035701	15.553659	0.917829
O	3.251749	9.074554	1.121361
O	1.121361	11.487493	0.838810
O	5.055447	11.133490	1.192813
O	2.976765	13.494723	1.141107
O	5.258979	9.376851	2.976765
O	4.983995	13.192426	2.996511
O	3.180297	15.251362	2.925059
O	7.114383	15.605365	3.279062
O	0.838810	9.357105	3.251749
O	7.015618	11.160803	3.180297
O	3.200043	11.435787	3.200043
O	1.192813	13.291191	2.897746
O	7.317915	9.153573	5.035701
O	2.897746	9.428557	5.055447
O	4.956682	11.232255	4.983995
O	5.310685	15.533913	5.337998
O	1.141107	11.212509	5.258979
O	2.996511	13.219739	4.956682
O	7.298169	13.573742	5.310685
O	0.866123	15.632678	5.239233
O	0.937575	9.455870	7.042931
O	5.239233	9.101867	7.396934
O	7.369621	11.514806	7.114383
O	7.094637	15.330381	7.094637
O	2.925059	11.416041	7.015618
O	0.917829	13.271445	7.317915
O	5.337998	13.546429	7.298169
O	3.279062	15.350127	7.369621
Zn	0.010033	8.245777	0.010033
Zn	2.048903	10.284647	2.048903
Zn	6.186841	14.402519	2.068969
Zn	-0.010033	12.363649	4.107839
Zn	4.107839	8.225711	4.127905
Zn	2.068969	14.422585	6.166775
Zn	6.166775	10.304713	6.186841
Zn	4.127905	12.343583	-0.010033
Ge	5.147340	9.314152	9.216272
Ge	3.039464	15.490960	9.265212
Ge	0.980528	13.383084	9.314152
Ge	7.255216	9.265212	11.275208
Ge	5.196280	11.373088	11.324148
Ge	3.088404	13.432024	11.373088
Ge	7.206276	15.393080	13.334144
Ge	1.078408	9.216272	13.383084
Ge	3.137344	11.324148	13.432024
Ge	5.098400	15.442020	15.393080
Ge	7.157336	13.334144	15.442020
Ge	1.029468	11.275208	15.490960
O	7.042931	9.173319	9.455870
O	7.396934	13.474977	9.101867
O	1.220126	15.278676	9.173319
O	5.035701	15.553659	9.153573
O	3.251749	9.074554	9.357105
O	1.121361	11.487493	9.074554
O	5.055447	11.133490	9.428557
O	2.976765	13.494723	9.376851
O	5.258979	9.376851	11.212509
O	4.983995	13.192426	11.232255
O	3.180297	15.251362	11.160803
O	7.114383	15.605365	11.514806
O	0.838810	9.357105	11.487493
O	7.015618	11.160803	11.416041
O	3.200043	11.435787	11.435787
O	1.192813	13.291191	11.133490
O	7.317915	9.153573	13.271445
O	2.897746	9.428557	13.291191
O	4.956682	11.232255	13.219739
O	5.310685	15.533913	13.573742
O	1.141107	11.212509	13.494723
O	2.996511	13.219739	13.192426
O	7.298169	13.573742	13.546429
O	0.866123	15.632678	13.474977
O	0.937575	9.455870	15.278676
O	5.239233	9.101867	15.632678
O	7.369621	11.514806	15.350127
O	7.094637	15.330381	15.330381
O	2.925059	11.416041	15.251362
O	0.917829	13.271445	15.553659
O	5.337998	13.546429	15.533913
O	3.279062	15.350127	15.605365
Zn	0.010033	8.245777	8.245777
Zn	2.048903	10.284647	10.284647
Zn	6.186841	14.402519	10.304713
Zn	-0.010033	12.363649	12.343583
Zn	4.107839	8.225711	12.363649
Zn	2.068969	14.422585	14.402519
Zn	6.166775	10.304713	14.422585
Zn	4.127905	12.343583	8.225711
Ge	13.383084	1.078408	0.980528
Ge	11.275208	7.255216	1.029468
Ge	9.216272	5.147340	1.078408
Ge	15.490960	1.029468	3.039464
Ge	13.432024	3.137344	3.088404
Ge	11.324148	5.196280	3.137344
Ge	15.442020	7.157336	5.098400
Ge	9.314152	0.980528	5.147340
Ge	11.373088	3.088404	5.196280
Ge	13.334144	7.206276	7.157336
Ge	15.393080	5.098400	7.206276
Ge	9.265212	3.039464	7.255216
O	15.278676	0.937575	1.220126
O	15.632678	5.239233	0.866123
O	9.455870	7.042931	0.937575
O	13.271445	7.317915	0.917829
O	11.487493	0.838810	1.121361
O	9.357105	3.251749	0.838810
O	13.291191	2.897746	1.192813
O	11.212509	5.258979	1.141107
O	13.494723	1.141107	2.976765
O	13.219739	4.956682	2.996511
O	11.416041	7.015618	2.925059
O	15.350127	7.369621	3.279062
O	9.074554	1.121361	3.251749
O	15.251362	2.925059	3.180297
O	11.435787	3.200043	3.200043
O	9.428557	5.055447	2.897746
O	15.553659	0.917829	5.035701
O	11.133490	1.192813	5.055447
O	13.192426	2.996511	4.983995
O	13.546429	7.298169	5.337998
O	9.376851	2.976765	5.258979
O	11.232255	4.983995	4.956682
O	15.533913	5.337998	5.310685
O	9.101867	7.396934	5.239233
O	9.173319	1.220126	7.042931
O	13.474977	0.866123	7.396934
O	15.605365	3.279062	7.114383
O	15.330381	7.094637	7.094637
O	11.160803	3.180297	7.015618
O	9.153573	5.035701	7.317915
O	13.573742	5.310685	7.298169
O	11.514806	7.114383	7.369621
Zn	8.245777	0.010033	0.010033
Zn	10.284647	2.048903	2.048903
Zn	14.422585	6.166775	2.068969
Zn	8.225711	4.127905	4.107839
Zn	12.343583	-0.010033	4.127905
Zn	10.304713	6.186841	6.166775
Zn	14.402519	2.068969	6.186841
Zn	12.363649	4.107839	-0.010033
Ge	13.383084	1.078408	9.216272
Ge	11.275208	7.255216	9.265212
Ge	9.216272	5.147340	9.314152
Ge	15.490960	1.029468	11.275208
Ge	13.432024	3.137344	11.324148
Ge	11.324148	5.196280	11.373088
Ge	15.442020	7.157336	13.334144
Ge	9.314152	0.980528	13.383084
Ge	11.373088	3.088404	13.432024
Ge	13.334144	7.206276	15.393080
Ge	15.393080	5.098400	15.442020
Ge	9.265212	3.039464	15.490960
O	15.278676	0.937575	9.455870
O	15.632678	5.239233	9.101867
O	9.455870	7.042931	9.173319
O	13.271445	7.317915	9.153573
O	11.487493	0.838810	9.357105
O	9.357105	3.251749	9.074554
O	13.291191	2.897746	9.428557
O	11.212509	5.258979	9.376851
O	13.494723	1.141107	11.212509
O	13.219739	4.956682	11.232255
O	11.416041	7.015618	11.160803
O	15.350127	7.369621	11.514806
O	9.074554	1.121361	11.487493
O	15.251362	2.925059	11.416041
O	11.435787	3.200043	11.435787
O	9.428557	5.055447	11.133490
O	15.553659	0.917829	13.271445
O	11.133490	1.192813	13.291191
O	13.192426	2.996511	13.219739
O	13.546429	7.298169	13.573742
O	9.376851	2.976765	13.494723
O	11.232255	4.983995	13.192426
O	15.533913	5.337998	13.546429
O	9.101867	7.396934	13.474977
O	9.173319	1.220126	15.278676
O	13.474977	0.866123	15.632678
O	15.605365	3.279062	15.350127
O	15.330381	7.094637	15.330381
O	11.160803	3.180297	15.251362
O	9.153573	5.035701	15.553659
O	13.573742	5.310685	15.533913
O	11.514806	7.114383	15.605365
Zn	8.245777	0.010033	8.245777
Zn	10.284647	2.048903	10.284647
Zn	14.422585	6.166775	10.304713
Zn	8.225711	4.127905	12.343583
Zn	12.343583	-0.010033	12.363649
Zn	10.304713	6.186841	14.402519
Zn	14.402519	2.068969	14.422585
Zn	12.363649	4.107839	8.225711
Ge	13.383084	9.314152	0.980528
Ge	11.275208	15.490960	1.029468
Ge	9.216272	13.383084	1.078408
Ge	15.490960	9.265212	3.039464
Ge	13.432024	11.373088	3.088404
Ge	11.324148	13.432024	3.137344
Ge	15.442020	15.393080	5.098400
Ge	9.314152	9.216272	5.147340
Ge	11.373088	11.324148	5.196280
Ge	13.334144	15.442020	7.157336
Ge	15.393080	13.334144	7.206276
Ge	9.265212	11.275208	7.255216
O	15.278676	9.173319	1.220126
O	15.632678	13.474977	0.866123
O	9.455870	15.278676	0.937575
O	13.271445	15.553659	0.917829
O	11.487493	9.074554	1.121361
O	9.357105	11.487493	0.838810
O	13.291191	11.133490	1.192813
O	11.212509	13.494723	1.141107
O	13.494723	9.376851	2.976765
O	13.219739	13.192426	2.996511
O	11.416041	15.251362	2.925059
O	15.350127	15.605365	3.279062
O	9.074554	9.357105	3.251749
O	15.251362	11.160803	3.180297
O	11.435787	11.435787	3.200043
O	9.428557	13.291191	2.897746
O	15.553659	9.153573	5.035701
O	11.133490	9.428557	5.055447
O	13.192426	11.232255	4.983995
O	13.546429	15.533913	5.337998
O	9.376851	11.212509	5.258979
O	11.232255	13.219739	4.956682
O	15.533913	13.573742	5.310685
O	9.101867	15.632678	5.239233
O	9.173319	9.455870	7.042931
O	13.474977	9.101867	7.396934
O	15.605365	11.514806	7.114383
O	15.330381	15.330381	7.094637
O	11.160803	11.416041	7.015618
O	9.153573	13.271445	7.317915
O	13.573742	13.546429	7.298169
O	11.514806	15.350127	7.369621
Zn	8.245777	8.245777	0.010033
Zn	10.284647	10.284647	2.048903
Zn	14.422585	14.402519	2.068969
Zn	8.225711	12.363649	4.107839
Zn	12.343583	8.225711	4.127905
Zn	10.304713	14.422585	6.166775
Zn	14.402519	10.304713	6.186841
Zn	12.363649	12.343583	-0.010033
Ge	13.383084	9.314152	9.216272
Ge	11.275208	15.490960	9.265212
Ge	9.216272	13.383084	9.314152
Ge	15.490960	9.265212	11.275208
Ge	13.432024	11.373088	11.324148
Ge	11.324148	13.432024	11.373088
Ge	15.442020	15.393080	13.334144
Ge	9.314152	9.216272	13.383084
Ge	11.373088	11.324148	13.432024
Ge	13.334144	15.442020	15.393080
Ge	15.393080	13.334144	15.442020
Ge	9.265212	11.275208	15.490960
O	15.278676	9.173319	9.455870
O	15.632678	13.474977	9.101867
O	9.455870	15.278676	9.173319
O	13.271445	15.553659	9.153573
O	11.487493	9.074554	9.357105
O	9.357105	11.487493	9.074554
O	13.291191	11.133490	9.428557
O	11.212509	13.494723	9.376851
O	13.494723	9.376851	11.212509
O	13.219739	13.192426	11.232255
O	11.416041	15.251362	11.160803
O	15.350127	15.605365	11.514806
O	9.074554	9.357105	11.487493
O	15.251362	11.160803	11.416041
O	11.435787	11.435787	11.435787
O	9.428557	13.291191	11.133490
O	15.553659	9.153573	13.271445
O	11.133490	9.428557	13.291191
O	13.192426	11.232255	13.219739
O	13.546429	15.533913	13.573742
O	9.376851	11.212509	13.494723
O	11.232255	13.219739	13.192426
O	15.533913	13.573742	13.546429
O	9.101867	15.632678	13.474977
O	9.173319	9.455870	15.278676
O	13.474977	9.101867	15.632678
O	15.605365	11.514806	15.350127
O	15.330381	15.330381	15.330381
O	11.160803	11.416041	15.251362
O	9.153573	13.271445	15.553659
O	13.573742	13.546429	15.533913
O	11.514806	15.350127	15.605365
Zn	8.245777	8.245777	8.245777
Zn	10.284647	10.284647	10.284647
Zn	14.422585	14.402519	10.304713
Zn	8.225711	12.363649	12.343583
Zn	12.343583	8.225711	12.363649
Zn	10.304713	14.422585	14.402519
Zn	14.402519	10.304713	14.422585
Zn	12.363649	12.343583	8.225711
