112

Co	0.000000	0.000000	0.000000
Co	2.184042	-2.184523	-2.184523
O	3.351837	-1.016059	-1.016059
O	-1.016236	1.016059	-3.352988
O	1.016236	-1.016059	-3.352988
O	1.167796	1.168464	-1.168464
O	5.384320	1.016059	-1.016059
O	1.167796	3.200582	-3.200582
O	3.200278	3.200582	-1.168464
O	3.200278	1.168464	-3.200582
Sc	-1.092016	-1.092262	-3.276785
Sc	1.092016	1.092262	-3.276785
Sc	3.276058	1.092262	-1.092262
Sc	5.460099	-1.092262	-1.092262
Co	4.368079	4.369044	0.000000
Co	6.552121	2.184521	-2.184523
O	7.719916	3.352985	-1.016059
O	3.351843	5.385103	-3.352988
O	5.384315	3.352985	-3.352988
O	5.535875	5.537508	-1.168464
O	9.752399	5.385103	-1.016059
O	5.535875	7.569627	-3.200582
O	7.568357	7.569627	-1.168464
O	7.568357	5.537508	-3.200582
Sc	3.276063	3.276783	-3.276785
Sc	5.460095	5.461306	-3.276785
Sc	7.644137	5.461306	-1.092262
Sc	9.828179	3.276783	-1.092262
Co	-4.368079	0.000000	-4.369044
Co	-2.184037	-2.184523	-6.553568
O	-1.016242	-1.016059	-5.385103
O	-5.384315	1.016059	-7.722032
O	-3.351843	-1.016059	-7.722032
O	-3.200283	1.168464	-5.537508
O	1.016241	1.016059	-5.385103
O	-3.200283	3.200582	-7.569627
O	-1.167801	3.200582	-5.537508
O	-1.167801	1.168464	-7.569627
Sc	-5.460095	-1.092262	-7.645829
Sc	-3.276063	1.092262	-7.645829
Sc	-1.092021	1.092262	-5.461306
Sc	1.092020	-1.092262	-5.461306
Co	0.000000	4.369044	-4.369044
Co	2.184042	2.184521	-6.553568
O	3.351837	3.352985	-5.385103
O	-1.016236	5.385103	-7.722032
O	1.016236	3.352985	-7.722032
O	1.167796	5.537508	-5.537508
O	5.384320	5.385103	-5.385103
O	1.167796	7.569627	-7.569627
O	3.200278	7.569627	-5.537508
O	3.200278	5.537508	-7.569627
Sc	-1.092016	3.276783	-7.645829
Sc	1.092016	5.461306	-7.645829
Sc	3.276058	5.461306	-5.461306
Sc	5.460099	3.276783	-5.461306
Co	4.368079	-4.369044	0.000000
Co	6.552121	-6.553568	-2.184523
O	7.719916	-5.385103	-1.016059
O	3.351843	-3.352985	-3.352988
O	5.384315	-5.385103	-3.352988
O	5.535875	-3.200580	-1.168464
O	9.752399	-3.352985	-1.016059
O	5.535875	-1.168462	-3.200582
O	7.568357	-1.168462	-1.168464
O	7.568357	-3.200580	-3.200582
Sc	3.276063	-5.461306	-3.276785
Sc	5.460095	-3.276783	-3.276785
Sc	7.644137	-3.276783	-1.092262
Sc	9.828179	-5.461306	-1.092262
Co	8.736158	0.000000	0.000000
Co	10.920200	-2.184523	-2.184523
O	12.087996	-1.016059	-1.016059
O	7.719922	1.016059	-3.352988
O	9.752394	-1.016059	-3.352988
O	9.903954	1.168464	-1.168464
O	14.120478	1.016059	-1.016059
O	9.903954	3.200582	-3.200582
O	11.936436	3.200582	-1.168464
O	11.936436	1.168464	-3.200582
Sc	7.644142	-1.092262	-3.276785
Sc	9.828174	1.092262	-3.276785
Sc	12.012216	1.092262	-1.092262
Sc	14.196258	-1.092262	-1.092262
Co	0.000000	-4.369044	-4.369044
Co	2.184042	-6.553568	-6.553568
O	3.351837	-5.385103	-5.385103
O	-1.016236	-3.352985	-7.722032
O	1.016236	-5.385103	-7.722032
O	1.167796	-3.200580	-5.537508
O	5.384320	-3.352985	-5.385103
O	1.167796	-1.168462	-7.569627
O	3.200278	-1.168462	-5.537508
O	3.200278	-3.200580	-7.569627
Sc	-1.092016	-5.461306	-7.645829
Sc	1.092016	-3.276783	-7.645829
Sc	3.276058	-3.276783	-5.461306
Sc	5.460099	-5.461306	-5.461306
Co	4.368079	0.000000	-4.369044
Co	6.552121	-2.184523	-6.553568
O	7.719916	-1.016059	-5.385103
O	3.351843	1.016059	-7.722032
O	5.384315	-1.016059	-7.722032
O	5.535875	1.168464	-5.537508
O	9.752399	1.016059	-5.385103
O	5.535875	3.200582	-7.569627
O	7.568357	3.200582	-5.537508
O	7.568357	1.168464	-7.569627
Sc	3.276063	-1.092262	-7.645829
Sc	5.460095	1.092262	-7.645829
Sc	7.644137	1.092262	-5.461306
Sc	9.828179	-1.092262	-5.461306
