40

Ga	0.000000	0.000000	0.000000
O	0.000000	1.953615	1.953615
O	1.953615	0.000000	1.953615
O	1.953615	1.953615	0.000000
Rh	1.953615	1.953615	1.953615
Ga	0.000000	0.000000	3.907231
O	0.000000	1.953615	5.860846
O	1.953615	0.000000	5.860846
O	1.953615	1.953615	3.907231
Rh	1.953615	1.953615	5.860846
Ga	0.000000	3.907231	0.000000
O	0.000000	5.860846	1.953615
O	1.953615	3.907231	1.953615
O	1.953615	5.860846	0.000000
Rh	1.953615	5.860846	1.953615
Ga	0.000000	3.907231	3.907231
O	0.000000	5.860846	5.860846
O	1.953615	3.907231	5.860846
O	1.953615	5.860846	3.907231
Rh	1.953615	5.860846	5.860846
Ga	3.907231	0.000000	0.000000
O	3.907231	1.953615	1.953615
O	5.860846	0.000000	1.953615
O	5.860846	1.953615	0.000000
Rh	5.860846	1.953615	1.953615
Ga	3.907231	0.000000	3.907231
O	3.907231	1.953615	5.860846
O	5.860846	0.000000	5.860846
O	5.860846	1.953615	3.907231
Rh	5.860846	1.953615	5.860846
Ga	3.907231	3.907231	0.000000
O	3.907231	5.860846	1.953615
O	5.860846	3.907231	1.953615
O	5.860846	5.860846	0.000000
Rh	5.860846	5.860846	1.953615
Ga	3.907231	3.907231	3.907231
O	3.907231	5.860846	5.860846
O	5.860846	3.907231	5.860846
O	5.860846	5.860846	3.907231
Rh	5.860846	5.860846	5.860846
