40

Be	0.000000	0.000000	0.000000
O	0.000000	1.936354	1.936354
O	1.936354	0.000000	1.936354
O	1.936354	1.936354	0.000000
Pd	1.936354	1.936354	1.936354
Be	0.000000	0.000000	3.872707
O	0.000000	1.936354	5.809061
O	1.936354	0.000000	5.809061
O	1.936354	1.936354	3.872707
Pd	1.936354	1.936354	5.809061
Be	0.000000	3.872707	0.000000
O	0.000000	5.809061	1.936354
O	1.936354	3.872707	1.936354
O	1.936354	5.809061	0.000000
Pd	1.936354	5.809061	1.936354
Be	0.000000	3.872707	3.872707
O	0.000000	5.809061	5.809061
O	1.936354	3.872707	5.809061
O	1.936354	5.809061	3.872707
Pd	1.936354	5.809061	5.809061
Be	3.872707	0.000000	0.000000
O	3.872707	1.936354	1.936354
O	5.809061	0.000000	1.936354
O	5.809061	1.936354	0.000000
Pd	5.809061	1.936354	1.936354
Be	3.872707	0.000000	3.872707
O	3.872707	1.936354	5.809061
O	5.809061	0.000000	5.809061
O	5.809061	1.936354	3.872707
Pd	5.809061	1.936354	5.809061
Be	3.872707	3.872707	0.000000
O	3.872707	5.809061	1.936354
O	5.809061	3.872707	1.936354
O	5.809061	5.809061	0.000000
Pd	5.809061	5.809061	1.936354
Be	3.872707	3.872707	3.872707
O	3.872707	5.809061	5.809061
O	5.809061	3.872707	5.809061
O	5.809061	5.809061	3.872707
Pd	5.809061	5.809061	5.809061
