40

Bi	0.000000	0.000000	0.000000
Dy	2.153370	2.153370	2.153370
O	2.153370	2.153370	0.000000
O	2.153370	0.000000	2.153370
O	0.000000	2.153370	2.153370
Bi	0.000000	0.000000	4.306744
Dy	2.153370	2.153370	6.460114
O	2.153370	2.153370	4.306744
O	2.153370	0.000000	6.460114
O	0.000000	2.153370	6.460114
Bi	0.000000	4.306744	0.000000
Dy	2.153370	6.460114	2.153370
O	2.153370	6.460114	0.000000
O	2.153370	4.306744	2.153370
O	0.000000	6.460114	2.153370
Bi	0.000000	4.306744	4.306744
Dy	2.153370	6.460114	6.460114
O	2.153370	6.460114	4.306744
O	2.153370	4.306744	6.460114
O	0.000000	6.460114	6.460114
Bi	4.306744	0.000000	0.000000
Dy	6.460114	2.153370	2.153370
O	6.460114	2.153370	0.000000
O	6.460114	0.000000	2.153370
O	4.306744	2.153370	2.153370
Bi	4.306744	0.000000	4.306744
Dy	6.460114	2.153370	6.460114
O	6.460114	2.153370	4.306744
O	6.460114	0.000000	6.460114
O	4.306744	2.153370	6.460114
Bi	4.306744	4.306744	0.000000
Dy	6.460114	6.460114	2.153370
O	6.460114	6.460114	0.000000
O	6.460114	4.306744	2.153370
O	4.306744	6.460114	2.153370
Bi	4.306744	4.306744	4.306744
Dy	6.460114	6.460114	6.460114
O	6.460114	6.460114	4.306744
O	6.460114	4.306744	6.460114
O	4.306744	6.460114	6.460114
