40

Ca	-2.750332	0.000004	0.000002
Ti	-0.000000	-0.000001	-1.944782
O	-0.000001	0.000004	0.000002
O	-1.375169	1.375156	-1.944779
O	-1.375162	-1.375159	-1.944786
Ca	-2.750333	0.000002	-3.889559
Ti	-0.000001	-0.000004	-5.834344
O	-0.000001	0.000002	-3.889560
O	-1.375170	1.375153	-5.834341
O	-1.375162	-1.375161	-5.834348
Ca	-5.500668	2.750317	0.000004
Ti	-2.750336	2.750312	-1.944781
O	-2.750336	2.750317	0.000003
O	-4.125504	4.125469	-1.944778
O	-4.125497	1.375154	-1.944785
Ca	-5.500668	2.750315	-3.889558
Ti	-2.750336	2.750309	-5.834343
O	-2.750336	2.750315	-3.889559
O	-4.125505	4.125466	-5.834339
O	-4.125498	1.375152	-5.834347
Ca	-5.500660	-2.750302	0.000000
Ti	-2.750329	-2.750307	-1.944784
O	-2.750329	-2.750301	-0.000000
O	-4.125497	-1.375150	-1.944781
O	-4.125490	-4.125465	-1.944788
Ca	-5.500661	-2.750304	-3.889561
Ti	-2.750329	-2.750309	-5.834346
O	-2.750329	-2.750304	-3.889562
O	-4.125498	-1.375152	-5.834343
O	-4.125491	-4.125467	-5.834350
Ca	-8.250996	0.000011	0.000002
Ti	-5.500664	0.000006	-1.944783
O	-5.500664	0.000012	0.000001
O	-6.875833	1.375163	-1.944780
O	-6.875825	-1.375152	-1.944787
Ca	-8.250996	0.000009	-3.889560
Ti	-5.500664	0.000004	-5.834345
O	-5.500665	0.000009	-3.889561
O	-6.875833	1.375160	-5.834341
O	-6.875826	-1.375154	-5.834349
