40

Bi	2.110296	2.110296	2.110296
O	0.000000	2.110296	2.110296
O	2.110296	0.000000	2.110296
O	2.110296	2.110296	0.000000
Pd	0.000000	0.000000	0.000000
Bi	2.110296	2.110296	6.330889
O	0.000000	2.110296	6.330889
O	2.110296	0.000000	6.330889
O	2.110296	2.110296	4.220592
Pd	0.000000	0.000000	4.220592
Bi	2.110296	6.330889	2.110296
O	0.000000	6.330889	2.110296
O	2.110296	4.220592	2.110296
O	2.110296	6.330889	0.000000
Pd	0.000000	4.220592	0.000000
Bi	2.110296	6.330889	6.330889
O	0.000000	6.330889	6.330889
O	2.110296	4.220592	6.330889
O	2.110296	6.330889	4.220592
Pd	0.000000	4.220592	4.220592
Bi	6.330889	2.110296	2.110296
O	4.220592	2.110296	2.110296
O	6.330889	0.000000	2.110296
O	6.330889	2.110296	0.000000
Pd	4.220592	0.000000	0.000000
Bi	6.330889	2.110296	6.330889
O	4.220592	2.110296	6.330889
O	6.330889	0.000000	6.330889
O	6.330889	2.110296	4.220592
Pd	4.220592	0.000000	4.220592
Bi	6.330889	6.330889	2.110296
O	4.220592	6.330889	2.110296
O	6.330889	4.220592	2.110296
O	6.330889	6.330889	0.000000
Pd	4.220592	4.220592	0.000000
Bi	6.330889	6.330889	6.330889
O	4.220592	6.330889	6.330889
O	6.330889	4.220592	6.330889
O	6.330889	6.330889	4.220592
Pd	4.220592	4.220592	4.220592
