40

Cu	0.000000	0.000000	0.000000
O	0.000000	1.944596	1.944596
O	1.944596	0.000000	1.944596
O	1.944596	1.944596	0.000000
Ti	1.944596	1.944596	1.944596
Cu	0.000000	0.000000	3.889192
O	0.000000	1.944596	5.833788
O	1.944596	0.000000	5.833788
O	1.944596	1.944596	3.889192
Ti	1.944596	1.944596	5.833788
Cu	0.000000	3.889192	0.000000
O	0.000000	5.833788	1.944596
O	1.944596	3.889192	1.944596
O	1.944596	5.833788	0.000000
Ti	1.944596	5.833788	1.944596
Cu	0.000000	3.889192	3.889192
O	0.000000	5.833788	5.833788
O	1.944596	3.889192	5.833788
O	1.944596	5.833788	3.889192
Ti	1.944596	5.833788	5.833788
Cu	3.889192	0.000000	0.000000
O	3.889192	1.944596	1.944596
O	5.833788	0.000000	1.944596
O	5.833788	1.944596	0.000000
Ti	5.833788	1.944596	1.944596
Cu	3.889192	0.000000	3.889192
O	3.889192	1.944596	5.833788
O	5.833788	0.000000	5.833788
O	5.833788	1.944596	3.889192
Ti	5.833788	1.944596	5.833788
Cu	3.889192	3.889192	0.000000
O	3.889192	5.833788	1.944596
O	5.833788	3.889192	1.944596
O	5.833788	5.833788	0.000000
Ti	5.833788	5.833788	1.944596
Cu	3.889192	3.889192	3.889192
O	3.889192	5.833788	5.833788
O	5.833788	3.889192	5.833788
O	5.833788	5.833788	3.889192
Ti	5.833788	5.833788	5.833788
