40

Ca	2.176738	2.176738	2.176738
O	0.000000	2.176738	2.176738
O	2.176738	0.000000	2.176738
O	2.176738	2.176738	0.000000
Se	0.000000	0.000000	0.000000
Ca	2.176738	2.176738	6.530213
O	0.000000	2.176738	6.530213
O	2.176738	0.000000	6.530213
O	2.176738	2.176738	4.353475
Se	0.000000	0.000000	4.353475
Ca	2.176738	6.530213	2.176738
O	0.000000	6.530213	2.176738
O	2.176738	4.353475	2.176738
O	2.176738	6.530213	0.000000
Se	0.000000	4.353475	0.000000
Ca	2.176738	6.530213	6.530213
O	0.000000	6.530213	6.530213
O	2.176738	4.353475	6.530213
O	2.176738	6.530213	4.353475
Se	0.000000	4.353475	4.353475
Ca	6.530213	2.176738	2.176738
O	4.353475	2.176738	2.176738
O	6.530213	0.000000	2.176738
O	6.530213	2.176738	0.000000
Se	4.353475	0.000000	0.000000
Ca	6.530213	2.176738	6.530213
O	4.353475	2.176738	6.530213
O	6.530213	0.000000	6.530213
O	6.530213	2.176738	4.353475
Se	4.353475	0.000000	4.353475
Ca	6.530213	6.530213	2.176738
O	4.353475	6.530213	2.176738
O	6.530213	4.353475	2.176738
O	6.530213	6.530213	0.000000
Se	4.353475	4.353475	0.000000
Ca	6.530213	6.530213	6.530213
O	4.353475	6.530213	6.530213
O	6.530213	4.353475	6.530213
O	6.530213	6.530213	4.353475
Se	4.353475	4.353475	4.353475
