40

Ce	0.000000	0.000000	0.000000
Ni	1.906440	1.906440	1.906440
O	1.906440	0.000000	1.906440
O	0.000000	1.906440	1.906440
O	1.906440	1.906440	0.000000
Ce	0.000000	0.000000	3.812889
Ni	1.906440	1.906440	5.719329
O	1.906440	0.000000	5.719329
O	0.000000	1.906440	5.719329
O	1.906440	1.906440	3.812889
Ce	0.000000	3.812889	0.000000
Ni	1.906440	5.719329	1.906440
O	1.906440	3.812889	1.906440
O	0.000000	5.719329	1.906440
O	1.906440	5.719329	0.000000
Ce	0.000000	3.812889	3.812889
Ni	1.906440	5.719329	5.719329
O	1.906440	3.812889	5.719329
O	0.000000	5.719329	5.719329
O	1.906440	5.719329	3.812889
Ce	3.812889	0.000000	0.000000
Ni	5.719329	1.906440	1.906440
O	5.719329	0.000000	1.906440
O	3.812889	1.906440	1.906440
O	5.719329	1.906440	0.000000
Ce	3.812889	0.000000	3.812889
Ni	5.719329	1.906440	5.719329
O	5.719329	0.000000	5.719329
O	3.812889	1.906440	5.719329
O	5.719329	1.906440	3.812889
Ce	3.812889	3.812889	0.000000
Ni	5.719329	5.719329	1.906440
O	5.719329	3.812889	1.906440
O	3.812889	5.719329	1.906440
O	5.719329	5.719329	0.000000
Ce	3.812889	3.812889	3.812889
Ni	5.719329	5.719329	5.719329
O	5.719329	3.812889	5.719329
O	3.812889	5.719329	5.719329
O	5.719329	5.719329	3.812889
