40

Cr	1.882240	1.882240	1.882240
Hf_pv	0.000000	0.000000	0.000000
O	1.882240	1.882240	0.000000
O	0.000000	1.882240	1.882240
O	1.882240	0.000000	1.882240
Cr	1.882240	1.882240	5.646708
Hf_pv	0.000000	0.000000	3.764468
O	1.882240	1.882240	3.764468
O	0.000000	1.882240	5.646708
O	1.882240	0.000000	5.646708
Cr	1.882240	5.646708	1.882240
Hf_pv	0.000000	3.764468	0.000000
O	1.882240	5.646708	0.000000
O	0.000000	5.646708	1.882240
O	1.882240	3.764468	1.882240
Cr	1.882240	5.646708	5.646708
Hf_pv	0.000000	3.764468	3.764468
O	1.882240	5.646708	3.764468
O	0.000000	5.646708	5.646708
O	1.882240	3.764468	5.646708
Cr	5.646708	1.882240	1.882240
Hf_pv	3.764468	0.000000	0.000000
O	5.646708	1.882240	0.000000
O	3.764468	1.882240	1.882240
O	5.646708	0.000000	1.882240
Cr	5.646708	1.882240	5.646708
Hf_pv	3.764468	0.000000	3.764468
O	5.646708	1.882240	3.764468
O	3.764468	1.882240	5.646708
O	5.646708	0.000000	5.646708
Cr	5.646708	5.646708	1.882240
Hf_pv	3.764468	3.764468	0.000000
O	5.646708	5.646708	0.000000
O	3.764468	5.646708	1.882240
O	5.646708	3.764468	1.882240
Cr	5.646708	5.646708	5.646708
Hf_pv	3.764468	3.764468	3.764468
O	5.646708	5.646708	3.764468
O	3.764468	5.646708	5.646708
O	5.646708	3.764468	5.646708
