40

Cr	0.000000	0.000000	0.000000
F	1.824664	1.824664	1.824664
O	0.000000	1.824664	1.824664
O	1.824664	0.000000	1.824664
O	1.824664	1.824664	0.000000
Cr	0.000000	0.000000	3.649328
F	1.824664	1.824664	5.473992
O	0.000000	1.824664	5.473992
O	1.824664	0.000000	5.473992
O	1.824664	1.824664	3.649328
Cr	0.000000	3.649328	0.000000
F	1.824664	5.473992	1.824664
O	0.000000	5.473992	1.824664
O	1.824664	3.649328	1.824664
O	1.824664	5.473992	0.000000
Cr	0.000000	3.649328	3.649328
F	1.824664	5.473992	5.473992
O	0.000000	5.473992	5.473992
O	1.824664	3.649328	5.473992
O	1.824664	5.473992	3.649328
Cr	3.649328	0.000000	0.000000
F	5.473992	1.824664	1.824664
O	3.649328	1.824664	1.824664
O	5.473992	0.000000	1.824664
O	5.473992	1.824664	0.000000
Cr	3.649328	0.000000	3.649328
F	5.473992	1.824664	5.473992
O	3.649328	1.824664	5.473992
O	5.473992	0.000000	5.473992
O	5.473992	1.824664	3.649328
Cr	3.649328	3.649328	0.000000
F	5.473992	5.473992	1.824664
O	3.649328	5.473992	1.824664
O	5.473992	3.649328	1.824664
O	5.473992	5.473992	0.000000
Cr	3.649328	3.649328	3.649328
F	5.473992	5.473992	5.473992
O	3.649328	5.473992	5.473992
O	5.473992	3.649328	5.473992
O	5.473992	5.473992	3.649328
