40

Cr	1.859314	1.859314	1.859314
F	0.000000	0.000000	0.000000
O	0.000000	1.859314	1.859314
O	1.859314	0.000000	1.859314
O	1.859314	1.859314	0.000000
Cr	1.859314	1.859314	5.577943
F	0.000000	0.000000	3.718629
O	0.000000	1.859314	5.577943
O	1.859314	0.000000	5.577943
O	1.859314	1.859314	3.718629
Cr	1.859314	5.577943	1.859314
F	0.000000	3.718629	0.000000
O	0.000000	5.577943	1.859314
O	1.859314	3.718629	1.859314
O	1.859314	5.577943	0.000000
Cr	1.859314	5.577943	5.577943
F	0.000000	3.718629	3.718629
O	0.000000	5.577943	5.577943
O	1.859314	3.718629	5.577943
O	1.859314	5.577943	3.718629
Cr	5.577943	1.859314	1.859314
F	3.718629	0.000000	0.000000
O	3.718629	1.859314	1.859314
O	5.577943	0.000000	1.859314
O	5.577943	1.859314	0.000000
Cr	5.577943	1.859314	5.577943
F	3.718629	0.000000	3.718629
O	3.718629	1.859314	5.577943
O	5.577943	0.000000	5.577943
O	5.577943	1.859314	3.718629
Cr	5.577943	5.577943	1.859314
F	3.718629	3.718629	0.000000
O	3.718629	5.577943	1.859314
O	5.577943	3.718629	1.859314
O	5.577943	5.577943	0.000000
Cr	5.577943	5.577943	5.577943
F	3.718629	3.718629	3.718629
O	3.718629	5.577943	5.577943
O	5.577943	3.718629	5.577943
O	5.577943	5.577943	3.718629
