40

Ga	0.000000	0.000000	0.000000
Mg	1.934530	1.934530	1.934530
O	0.000000	1.934530	1.934530
O	1.934530	0.000000	1.934530
O	1.934530	1.934530	0.000000
Ga	0.000000	0.000000	3.869059
Mg	1.934530	1.934530	5.803589
O	0.000000	1.934530	5.803589
O	1.934530	0.000000	5.803589
O	1.934530	1.934530	3.869059
Ga	0.000000	3.869059	0.000000
Mg	1.934530	5.803589	1.934530
O	0.000000	5.803589	1.934530
O	1.934530	3.869059	1.934530
O	1.934530	5.803589	0.000000
Ga	0.000000	3.869059	3.869059
Mg	1.934530	5.803589	5.803589
O	0.000000	5.803589	5.803589
O	1.934530	3.869059	5.803589
O	1.934530	5.803589	3.869059
Ga	3.869059	0.000000	0.000000
Mg	5.803589	1.934530	1.934530
O	3.869059	1.934530	1.934530
O	5.803589	0.000000	1.934530
O	5.803589	1.934530	0.000000
Ga	3.869059	0.000000	3.869059
Mg	5.803589	1.934530	5.803589
O	3.869059	1.934530	5.803589
O	5.803589	0.000000	5.803589
O	5.803589	1.934530	3.869059
Ga	3.869059	3.869059	0.000000
Mg	5.803589	5.803589	1.934530
O	3.869059	5.803589	1.934530
O	5.803589	3.869059	1.934530
O	5.803589	5.803589	0.000000
Ga	3.869059	3.869059	3.869059
Mg	5.803589	5.803589	5.803589
O	3.869059	5.803589	5.803589
O	5.803589	3.869059	5.803589
O	5.803589	5.803589	3.869059
