40

Br	0.000000	0.000000	0.000000
Ni	1.884317	1.884317	1.884317
O	0.000000	1.884317	1.884317
O	1.884317	0.000000	1.884317
O	1.884317	1.884317	0.000000
Br	0.000000	0.000000	3.768635
Ni	1.884317	1.884317	5.652952
O	0.000000	1.884317	5.652952
O	1.884317	0.000000	5.652952
O	1.884317	1.884317	3.768635
Br	0.000000	3.768635	0.000000
Ni	1.884317	5.652952	1.884317
O	0.000000	5.652952	1.884317
O	1.884317	3.768635	1.884317
O	1.884317	5.652952	0.000000
Br	0.000000	3.768635	3.768635
Ni	1.884317	5.652952	5.652952
O	0.000000	5.652952	5.652952
O	1.884317	3.768635	5.652952
O	1.884317	5.652952	3.768635
Br	3.768635	0.000000	0.000000
Ni	5.652952	1.884317	1.884317
O	3.768635	1.884317	1.884317
O	5.652952	0.000000	1.884317
O	5.652952	1.884317	0.000000
Br	3.768635	0.000000	3.768635
Ni	5.652952	1.884317	5.652952
O	3.768635	1.884317	5.652952
O	5.652952	0.000000	5.652952
O	5.652952	1.884317	3.768635
Br	3.768635	3.768635	0.000000
Ni	5.652952	5.652952	1.884317
O	3.768635	5.652952	1.884317
O	5.652952	3.768635	1.884317
O	5.652952	5.652952	0.000000
Br	3.768635	3.768635	3.768635
Ni	5.652952	5.652952	5.652952
O	3.768635	5.652952	5.652952
O	5.652952	3.768635	5.652952
O	5.652952	5.652952	3.768635
