40

F	0.000000	2.021026	2.021026
F	2.021026	0.000000	2.021026
F	2.021026	2.021026	0.000000
O	2.021026	2.021026	2.021026
Y	0.000000	0.000000	0.000000
F	0.000000	2.021026	6.063078
F	2.021026	0.000000	6.063078
F	2.021026	2.021026	4.042052
O	2.021026	2.021026	6.063078
Y	0.000000	0.000000	4.042052
F	0.000000	6.063078	2.021026
F	2.021026	4.042052	2.021026
F	2.021026	6.063078	0.000000
O	2.021026	6.063078	2.021026
Y	0.000000	4.042052	0.000000
F	0.000000	6.063078	6.063078
F	2.021026	4.042052	6.063078
F	2.021026	6.063078	4.042052
O	2.021026	6.063078	6.063078
Y	0.000000	4.042052	4.042052
F	4.042052	2.021026	2.021026
F	6.063078	0.000000	2.021026
F	6.063078	2.021026	0.000000
O	6.063078	2.021026	2.021026
Y	4.042052	0.000000	0.000000
F	4.042052	2.021026	6.063078
F	6.063078	0.000000	6.063078
F	6.063078	2.021026	4.042052
O	6.063078	2.021026	6.063078
Y	4.042052	0.000000	4.042052
F	4.042052	6.063078	2.021026
F	6.063078	4.042052	2.021026
F	6.063078	6.063078	0.000000
O	6.063078	6.063078	2.021026
Y	4.042052	4.042052	0.000000
F	4.042052	6.063078	6.063078
F	6.063078	4.042052	6.063078
F	6.063078	6.063078	4.042052
O	6.063078	6.063078	6.063078
Y	4.042052	4.042052	4.042052
