40

F	0.000000	2.018832	2.018832
F	2.018832	0.000000	2.018832
F	2.018832	2.018832	0.000000
O	2.018832	2.018832	2.018832
Y	0.000000	0.000000	0.000000
F	0.000000	2.018832	6.056497
F	2.018832	0.000000	6.056497
F	2.018832	2.018832	4.037665
O	2.018832	2.018832	6.056497
Y	0.000000	0.000000	4.037665
F	0.000000	6.056497	2.018832
F	2.018832	4.037665	2.018832
F	2.018832	6.056497	0.000000
O	2.018832	6.056497	2.018832
Y	0.000000	4.037665	0.000000
F	0.000000	6.056497	6.056497
F	2.018832	4.037665	6.056497
F	2.018832	6.056497	4.037665
O	2.018832	6.056497	6.056497
Y	0.000000	4.037665	4.037665
F	4.037665	2.018832	2.018832
F	6.056497	0.000000	2.018832
F	6.056497	2.018832	0.000000
O	6.056497	2.018832	2.018832
Y	4.037665	0.000000	0.000000
F	4.037665	2.018832	6.056497
F	6.056497	0.000000	6.056497
F	6.056497	2.018832	4.037665
O	6.056497	2.018832	6.056497
Y	4.037665	0.000000	4.037665
F	4.037665	6.056497	2.018832
F	6.056497	4.037665	2.018832
F	6.056497	6.056497	0.000000
O	6.056497	6.056497	2.018832
Y	4.037665	4.037665	0.000000
F	4.037665	6.056497	6.056497
F	6.056497	4.037665	6.056497
F	6.056497	6.056497	4.037665
O	6.056497	6.056497	6.056497
Y	4.037665	4.037665	4.037665
