40

Hg	2.048840	2.048840	2.048840
Mn	0.000000	0.000000	0.000000
O	2.048840	2.048840	0.000000
O	0.000000	2.048840	2.048840
O	2.048840	0.000000	2.048840
Hg	2.048840	2.048840	6.146518
Mn	0.000000	0.000000	4.097678
O	2.048840	2.048840	4.097678
O	0.000000	2.048840	6.146518
O	2.048840	0.000000	6.146518
Hg	2.048840	6.146518	2.048840
Mn	0.000000	4.097678	0.000000
O	2.048840	6.146518	0.000000
O	0.000000	6.146518	2.048840
O	2.048840	4.097678	2.048840
Hg	2.048840	6.146518	6.146518
Mn	0.000000	4.097678	4.097678
O	2.048840	6.146518	4.097678
O	0.000000	6.146518	6.146518
O	2.048840	4.097678	6.146518
Hg	6.146518	2.048840	2.048840
Mn	4.097678	0.000000	0.000000
O	6.146518	2.048840	0.000000
O	4.097678	2.048840	2.048840
O	6.146518	0.000000	2.048840
Hg	6.146518	2.048840	6.146518
Mn	4.097678	0.000000	4.097678
O	6.146518	2.048840	4.097678
O	4.097678	2.048840	6.146518
O	6.146518	0.000000	6.146518
Hg	6.146518	6.146518	2.048840
Mn	4.097678	4.097678	0.000000
O	6.146518	6.146518	0.000000
O	4.097678	6.146518	2.048840
O	6.146518	4.097678	2.048840
Hg	6.146518	6.146518	6.146518
Mn	4.097678	4.097678	4.097678
O	6.146518	6.146518	4.097678
O	4.097678	6.146518	6.146518
O	6.146518	4.097678	6.146518
