40

Ba	0.000000	0.000000	0.000000
O	2.030091	2.030091	0.000000
O	2.030091	0.000000	2.030091
O	0.000000	2.030091	2.030091
Os	2.030091	2.030091	2.030091
Ba	0.000000	0.000000	4.060183
O	2.030091	2.030091	4.060183
O	2.030091	0.000000	6.090274
O	0.000000	2.030091	6.090274
Os	2.030091	2.030091	6.090274
Ba	0.000000	4.060183	0.000000
O	2.030091	6.090274	0.000000
O	2.030091	4.060183	2.030091
O	0.000000	6.090274	2.030091
Os	2.030091	6.090274	2.030091
Ba	0.000000	4.060183	4.060183
O	2.030091	6.090274	4.060183
O	2.030091	4.060183	6.090274
O	0.000000	6.090274	6.090274
Os	2.030091	6.090274	6.090274
Ba	4.060183	0.000000	0.000000
O	6.090274	2.030091	0.000000
O	6.090274	0.000000	2.030091
O	4.060183	2.030091	2.030091
Os	6.090274	2.030091	2.030091
Ba	4.060183	0.000000	4.060183
O	6.090274	2.030091	4.060183
O	6.090274	0.000000	6.090274
O	4.060183	2.030091	6.090274
Os	6.090274	2.030091	6.090274
Ba	4.060183	4.060183	0.000000
O	6.090274	6.090274	0.000000
O	6.090274	4.060183	2.030091
O	4.060183	6.090274	2.030091
Os	6.090274	6.090274	2.030091
Ba	4.060183	4.060183	4.060183
O	6.090274	6.090274	4.060183
O	6.090274	4.060183	6.090274
O	4.060183	6.090274	6.090274
Os	6.090274	6.090274	6.090274
