40

Ba	2.288526	2.288526	2.288526
O	2.288526	2.288526	0.000000
O	2.288526	0.000000	2.288526
O	0.000000	2.288526	2.288526
Os	0.000000	0.000000	0.000000
Ba	2.288526	2.288526	6.865590
O	2.288526	2.288526	4.577065
O	2.288526	0.000000	6.865590
O	0.000000	2.288526	6.865590
Os	0.000000	0.000000	4.577065
Ba	2.288526	6.865590	2.288526
O	2.288526	6.865590	0.000000
O	2.288526	4.577065	2.288526
O	0.000000	6.865590	2.288526
Os	0.000000	4.577065	0.000000
Ba	2.288526	6.865590	6.865590
O	2.288526	6.865590	4.577065
O	2.288526	4.577065	6.865590
O	0.000000	6.865590	6.865590
Os	0.000000	4.577065	4.577065
Ba	6.865590	2.288526	2.288526
O	6.865590	2.288526	0.000000
O	6.865590	0.000000	2.288526
O	4.577065	2.288526	2.288526
Os	4.577065	0.000000	0.000000
Ba	6.865590	2.288526	6.865590
O	6.865590	2.288526	4.577065
O	6.865590	0.000000	6.865590
O	4.577065	2.288526	6.865590
Os	4.577065	0.000000	4.577065
Ba	6.865590	6.865590	2.288526
O	6.865590	6.865590	0.000000
O	6.865590	4.577065	2.288526
O	4.577065	6.865590	2.288526
Os	4.577065	4.577065	0.000000
Ba	6.865590	6.865590	6.865590
O	6.865590	6.865590	4.577065
O	6.865590	4.577065	6.865590
O	4.577065	6.865590	6.865590
Os	4.577065	4.577065	4.577065
