112

Ir	0.000000	0.000000	0.000000
Ir	2.441703	-2.442371	-2.442371
O	3.576473	-1.306606	-1.306606
O	-1.306934	1.306606	-3.578137
O	1.306934	-1.306606	-3.578137
O	1.134770	1.135765	-1.135765
O	6.190340	1.306606	-1.306606
O	1.134770	3.748977	-3.748977
O	3.748637	3.748977	-1.135765
O	3.748637	1.135765	-3.748977
Sr	-1.220852	-1.221186	-3.663557
Sr	3.662555	1.221186	-1.221186
Sr	6.104258	-1.221186	-1.221186
Sr	1.220852	1.221186	-3.663557
Ir	4.883407	4.884742	0.000000
Ir	7.325110	2.442371	-2.442371
O	8.459880	3.578137	-1.306606
O	3.576473	6.191348	-3.578137
O	6.190340	3.578137	-3.578137
O	6.018176	6.020508	-1.135765
O	11.073747	6.191348	-1.306606
O	6.018176	8.633720	-3.748977
O	8.632043	8.633720	-1.135765
O	8.632043	6.020508	-3.748977
Sr	3.662555	3.663557	-3.663557
Sr	8.545962	6.105928	-1.221186
Sr	10.987665	3.663557	-1.221186
Sr	6.104258	6.105928	-3.663557
Ir	-4.883407	0.000000	-4.884742
Ir	-2.441703	-2.442371	-7.327114
O	-1.306934	-1.306606	-6.191348
O	-6.190340	1.306606	-8.462879
O	-3.576473	-1.306606	-8.462879
O	-3.748637	1.135765	-6.020508
O	1.306934	1.306606	-6.191348
O	-3.748637	3.748977	-8.633720
O	-1.134770	3.748977	-6.020508
O	-1.134770	1.135765	-8.633720
Sr	-6.104258	-1.221186	-8.548299
Sr	-1.220852	1.221186	-6.105928
Sr	1.220852	-1.221186	-6.105928
Sr	-3.662555	1.221186	-8.548299
Ir	0.000000	4.884742	-4.884742
Ir	2.441703	2.442371	-7.327114
O	3.576473	3.578137	-6.191348
O	-1.306934	6.191348	-8.462879
O	1.306934	3.578137	-8.462879
O	1.134770	6.020508	-6.020508
O	6.190340	6.191348	-6.191348
O	1.134770	8.633720	-8.633720
O	3.748637	8.633720	-6.020508
O	3.748637	6.020508	-8.633720
Sr	-1.220852	3.663557	-8.548299
Sr	3.662555	6.105928	-6.105928
Sr	6.104258	3.663557	-6.105928
Sr	1.220852	6.105928	-8.548299
Ir	4.883407	-4.884742	0.000000
Ir	7.325110	-7.327114	-2.442371
O	8.459880	-6.191348	-1.306606
O	3.576473	-3.578137	-3.578137
O	6.190340	-6.191348	-3.578137
O	6.018176	-3.748977	-1.135765
O	11.073747	-3.578137	-1.306606
O	6.018176	-1.135765	-3.748977
O	8.632043	-1.135765	-1.135765
O	8.632043	-3.748977	-3.748977
Sr	3.662555	-6.105928	-3.663557
Sr	8.545962	-3.663557	-1.221186
Sr	10.987665	-6.105928	-1.221186
Sr	6.104258	-3.663557	-3.663557
Ir	9.766813	0.000000	0.000000
Ir	12.208516	-2.442371	-2.442371
O	13.343286	-1.306606	-1.306606
O	8.459880	1.306606	-3.578137
O	11.073747	-1.306606	-3.578137
O	10.901583	1.135765	-1.135765
O	15.957153	1.306606	-1.306606
O	10.901583	3.748977	-3.748977
O	13.515450	3.748977	-1.135765
O	13.515450	1.135765	-3.748977
Sr	8.545962	-1.221186	-3.663557
Sr	13.429368	1.221186	-1.221186
Sr	15.871071	-1.221186	-1.221186
Sr	10.987665	1.221186	-3.663557
Ir	0.000000	-4.884742	-4.884742
Ir	2.441703	-7.327114	-7.327114
O	3.576473	-6.191348	-6.191348
O	-1.306934	-3.578137	-8.462879
O	1.306934	-6.191348	-8.462879
O	1.134770	-3.748977	-6.020508
O	6.190340	-3.578137	-6.191348
O	1.134770	-1.135765	-8.633720
O	3.748637	-1.135765	-6.020508
O	3.748637	-3.748977	-8.633720
Sr	-1.220852	-6.105928	-8.548299
Sr	3.662555	-3.663557	-6.105928
Sr	6.104258	-6.105928	-6.105928
Sr	1.220852	-3.663557	-8.548299
Ir	4.883407	0.000000	-4.884742
Ir	7.325110	-2.442371	-7.327114
O	8.459880	-1.306606	-6.191348
O	3.576473	1.306606	-8.462879
O	6.190340	-1.306606	-8.462879
O	6.018176	1.135765	-6.020508
O	11.073747	1.306606	-6.191348
O	6.018176	3.748977	-8.633720
O	8.632043	3.748977	-6.020508
O	8.632043	1.135765	-8.633720
Sr	3.662555	-1.221186	-8.548299
Sr	8.545962	1.221186	-6.105928
Sr	10.987665	-1.221186	-6.105928
Sr	6.104258	1.221186	-8.548299
