112

Ir	0.000000	0.000000	0.000000
Ir	2.577111	-2.564950	-2.564950
O	1.078007	1.048679	-1.048679
O	1.499095	-1.516281	-3.613629
O	3.655128	-1.516281	-1.516281
O	-1.499095	1.516281	-3.613629
O	4.076216	4.081230	-1.048679
O	4.076216	1.048679	-4.081230
O	1.078007	4.081230	-4.081230
O	6.653317	1.516281	-1.516281
Rb	-1.288556	-1.282480	-3.847440
Rb	6.442778	-1.282480	-1.282480
Rb	3.865667	1.282480	-1.282480
Rb	1.288556	1.282480	-3.847440
Ir	5.154221	5.129907	0.000000
Ir	7.731332	2.564957	-2.564950
O	6.232227	6.178586	-1.048679
O	6.653315	3.613627	-3.613629
O	8.809349	3.613627	-1.516281
O	3.655126	6.646188	-3.613629
O	9.230436	9.211137	-1.048679
O	9.230436	6.178586	-4.081230
O	6.232227	9.211137	-4.081230
O	11.807538	6.646188	-1.516281
Rb	3.865665	3.847427	-3.847440
Rb	11.596999	3.847427	-1.282480
Rb	9.019887	6.412387	-1.282480
Rb	6.442776	6.412387	-3.847440
Ir	-5.154221	0.000000	-5.129907
Ir	-2.577110	-2.564950	-7.694857
O	-4.076214	1.048679	-6.178586
O	-3.655126	-1.516281	-8.743536
O	-1.499093	-1.516281	-6.646188
O	-6.653315	1.516281	-8.743536
O	-1.078005	4.081230	-6.178586
O	-1.078005	1.048679	-9.211137
O	-4.076214	4.081230	-9.211137
O	1.499096	1.516281	-6.646188
Rb	-6.442776	-1.282480	-8.977347
Rb	1.288557	-1.282480	-6.412387
Rb	-1.288554	1.282480	-6.412387
Rb	-3.865665	1.282480	-8.977347
Ir	0.000000	5.129907	-5.129907
Ir	2.577111	2.564957	-7.694857
O	1.078007	6.178586	-6.178586
O	1.499095	3.613627	-8.743536
O	3.655128	3.613627	-6.646188
O	-1.499095	6.646188	-8.743536
O	4.076216	9.211137	-6.178586
O	4.076216	6.178586	-9.211137
O	1.078007	9.211137	-9.211137
O	6.653317	6.646188	-6.646188
Rb	-1.288556	3.847427	-8.977347
Rb	6.442778	3.847427	-6.412387
Rb	3.865667	6.412387	-6.412387
Rb	1.288556	6.412387	-8.977347
Ir	5.154221	-5.129907	0.000000
Ir	7.731332	-7.694857	-2.564950
O	6.232227	-4.081228	-1.048679
O	6.653315	-6.646188	-3.613629
O	8.809349	-6.646188	-1.516281
O	3.655126	-3.613627	-3.613629
O	9.230436	-1.048677	-1.048679
O	9.230436	-4.081228	-4.081230
O	6.232227	-1.048677	-4.081230
O	11.807538	-3.613627	-1.516281
Rb	3.865665	-6.412387	-3.847440
Rb	11.596999	-6.412387	-1.282480
Rb	9.019887	-3.847427	-1.282480
Rb	6.442776	-3.847427	-3.847440
Ir	10.308442	0.000000	0.000000
Ir	12.885553	-2.564950	-2.564950
O	11.386448	1.048679	-1.048679
O	11.807536	-1.516281	-3.613629
O	13.963569	-1.516281	-1.516281
O	8.809347	1.516281	-3.613629
O	14.384657	4.081230	-1.048679
O	14.384657	1.048679	-4.081230
O	11.386448	4.081230	-4.081230
O	16.961758	1.516281	-1.516281
Rb	9.019886	-1.282480	-3.847440
Rb	16.751219	-1.282480	-1.282480
Rb	14.174108	1.282480	-1.282480
Rb	11.596997	1.282480	-3.847440
Ir	0.000000	-5.129907	-5.129907
Ir	2.577111	-7.694857	-7.694857
O	1.078007	-4.081228	-6.178586
O	1.499095	-6.646188	-8.743536
O	3.655128	-6.646188	-6.646188
O	-1.499095	-3.613627	-8.743536
O	4.076216	-1.048677	-6.178586
O	4.076216	-4.081228	-9.211137
O	1.078007	-1.048677	-9.211137
O	6.653317	-3.613627	-6.646188
Rb	-1.288556	-6.412387	-8.977347
Rb	6.442778	-6.412387	-6.412387
Rb	3.865667	-3.847427	-6.412387
Rb	1.288556	-3.847427	-8.977347
Ir	5.154221	0.000000	-5.129907
Ir	7.731332	-2.564950	-7.694857
O	6.232227	1.048679	-6.178586
O	6.653315	-1.516281	-8.743536
O	8.809349	-1.516281	-6.646188
O	3.655126	1.516281	-8.743536
O	9.230436	4.081230	-6.178586
O	9.230436	1.048679	-9.211137
O	6.232227	4.081230	-9.211137
O	11.807538	1.516281	-6.646188
Rb	3.865665	-1.282480	-8.977347
Rb	11.596999	-1.282480	-6.412387
Rb	9.019887	1.282480	-6.412387
Rb	6.442776	1.282480	-8.977347
