112

Ir	0.000000	0.000000	0.000000
Ir	2.588775	-2.578750	-2.578750
O	1.078675	1.048911	-1.048911
O	1.510101	-1.529850	-3.627661
O	3.667459	-1.529849	-1.529850
O	-1.510101	1.529849	-3.627661
O	4.098886	1.048911	-4.108600
O	4.098886	4.108600	-1.048911
O	1.078675	4.108600	-4.108600
O	6.687661	1.529850	-1.529850
Rb	-1.294388	-1.289375	-3.868135
Rb	6.471948	-1.289375	-1.289375
Rb	3.883173	1.289375	-1.289375
Rb	1.294388	1.289375	-3.868135
Ir	5.177559	5.157508	0.000000
Ir	7.766334	2.578757	-2.578750
O	6.256233	6.206418	-1.048911
O	6.687659	3.627658	-3.627661
O	8.845018	3.627658	-1.529850
O	3.667458	6.687357	-3.627661
O	9.276444	6.206418	-4.108600
O	9.276444	9.266107	-1.048911
O	6.256233	9.266107	-4.108600
O	11.865219	6.687357	-1.529850
Rb	3.883171	3.868133	-3.868135
Rb	11.649506	3.868133	-1.289375
Rb	9.060731	6.446883	-1.289375
Rb	6.471946	6.446883	-3.868135
Ir	-5.177559	0.000000	-5.157508
Ir	-2.588783	-2.578750	-7.736258
O	-4.098884	1.048911	-6.206418
O	-3.667458	-1.529850	-8.785168
O	-1.510099	-1.529849	-6.687357
O	-6.687659	1.529849	-8.785168
O	-1.078673	1.048911	-9.266107
O	-1.078673	4.108600	-6.206418
O	-4.098884	4.108600	-9.266107
O	1.510102	1.529850	-6.687357
Rb	-6.471946	-1.289375	-9.025643
Rb	1.294389	-1.289375	-6.446883
Rb	-1.294386	1.289375	-6.446883
Rb	-3.883171	1.289375	-9.025643
Ir	0.000000	5.157508	-5.157508
Ir	2.588775	2.578757	-7.736258
O	1.078675	6.206418	-6.206418
O	1.510101	3.627658	-8.785168
O	3.667459	3.627658	-6.687357
O	-1.510101	6.687357	-8.785168
O	4.098886	6.206418	-9.266107
O	4.098886	9.266107	-6.206418
O	1.078675	9.266107	-9.266107
O	6.687661	6.687357	-6.687357
Rb	-1.294388	3.868133	-9.025643
Rb	6.471948	3.868133	-6.446883
Rb	3.883173	6.446883	-6.446883
Rb	1.294388	6.446883	-9.025643
Ir	5.177559	-5.157508	0.000000
Ir	7.766334	-7.736258	-2.578750
O	6.256233	-4.108597	-1.048911
O	6.687659	-6.687357	-3.627661
O	8.845018	-6.687357	-1.529850
O	3.667458	-3.627658	-3.627661
O	9.276444	-4.108597	-4.108600
O	9.276444	-1.048908	-1.048911
O	6.256233	-1.048908	-4.108600
O	11.865219	-3.627658	-1.529850
Rb	3.883171	-6.446883	-3.868135
Rb	11.649506	-6.446883	-1.289375
Rb	9.060731	-3.868133	-1.289375
Rb	6.471946	-3.868133	-3.868135
Ir	10.355117	0.000000	0.000000
Ir	12.943892	-2.578750	-2.578750
O	11.433792	1.048911	-1.048911
O	11.865218	-1.529850	-3.627661
O	14.022577	-1.529849	-1.529850
O	8.845016	1.529849	-3.627661
O	14.454003	1.048911	-4.108600
O	14.454003	4.108600	-1.048911
O	11.433792	4.108600	-4.108600
O	17.042778	1.529850	-1.529850
Rb	9.060730	-1.289375	-3.868135
Rb	16.827065	-1.289375	-1.289375
Rb	14.238290	1.289375	-1.289375
Rb	11.649505	1.289375	-3.868135
Ir	0.000000	-5.157508	-5.157508
Ir	2.588775	-7.736258	-7.736258
O	1.078675	-4.108597	-6.206418
O	1.510101	-6.687357	-8.785168
O	3.667459	-6.687357	-6.687357
O	-1.510101	-3.627658	-8.785168
O	4.098886	-4.108597	-9.266107
O	4.098886	-1.048908	-6.206418
O	1.078675	-1.048908	-9.266107
O	6.687661	-3.627658	-6.687357
Rb	-1.294388	-6.446883	-9.025643
Rb	6.471948	-6.446883	-6.446883
Rb	3.883173	-3.868133	-6.446883
Rb	1.294388	-3.868133	-9.025643
Ir	5.177559	0.000000	-5.157508
Ir	7.766334	-2.578750	-7.736258
O	6.256233	1.048911	-6.206418
O	6.687659	-1.529850	-8.785168
O	8.845018	-1.529849	-6.687357
O	3.667458	1.529849	-8.785168
O	9.276444	1.048911	-9.266107
O	9.276444	4.108600	-6.206418
O	6.256233	4.108600	-9.266107
O	11.865219	1.529850	-6.687357
Rb	3.883171	-1.289375	-9.025643
Rb	11.649506	-1.289375	-6.446883
Rb	9.060731	1.289375	-6.446883
Rb	6.471946	1.289375	-9.025643
