40

Ba	2.324579	2.324579	2.324579
Cr	0.000000	0.000000	0.000000
O	0.000000	2.324579	2.324579
O	2.324579	0.000000	2.324579
O	2.324579	2.324579	0.000000
Ba	2.324579	2.324579	6.973738
Cr	0.000000	0.000000	4.649158
O	0.000000	2.324579	6.973738
O	2.324579	0.000000	6.973738
O	2.324579	2.324579	4.649158
Ba	2.324579	6.973738	2.324579
Cr	0.000000	4.649158	0.000000
O	0.000000	6.973738	2.324579
O	2.324579	4.649158	2.324579
O	2.324579	6.973738	0.000000
Ba	2.324579	6.973738	6.973738
Cr	0.000000	4.649158	4.649158
O	0.000000	6.973738	6.973738
O	2.324579	4.649158	6.973738
O	2.324579	6.973738	4.649158
Ba	6.973738	2.324579	2.324579
Cr	4.649158	0.000000	0.000000
O	4.649158	2.324579	2.324579
O	6.973738	0.000000	2.324579
O	6.973738	2.324579	0.000000
Ba	6.973738	2.324579	6.973738
Cr	4.649158	0.000000	4.649158
O	4.649158	2.324579	6.973738
O	6.973738	0.000000	6.973738
O	6.973738	2.324579	4.649158
Ba	6.973738	6.973738	2.324579
Cr	4.649158	4.649158	0.000000
O	4.649158	6.973738	2.324579
O	6.973738	4.649158	2.324579
O	6.973738	6.973738	0.000000
Ba	6.973738	6.973738	6.973738
Cr	4.649158	4.649158	4.649158
O	4.649158	6.973738	6.973738
O	6.973738	4.649158	6.973738
O	6.973738	6.973738	4.649158
