40

Ba	0.000000	0.000000	0.000000
Cr	1.997602	1.997602	1.997602
O	0.000000	1.997602	1.997602
O	1.997602	0.000000	1.997602
O	1.997602	1.997602	0.000000
Ba	0.000000	0.000000	3.995203
Cr	1.997602	1.997602	5.992805
O	0.000000	1.997602	5.992805
O	1.997602	0.000000	5.992805
O	1.997602	1.997602	3.995203
Ba	0.000000	3.995203	0.000000
Cr	1.997602	5.992805	1.997602
O	0.000000	5.992805	1.997602
O	1.997602	3.995203	1.997602
O	1.997602	5.992805	0.000000
Ba	0.000000	3.995203	3.995203
Cr	1.997602	5.992805	5.992805
O	0.000000	5.992805	5.992805
O	1.997602	3.995203	5.992805
O	1.997602	5.992805	3.995203
Ba	3.995203	0.000000	0.000000
Cr	5.992805	1.997602	1.997602
O	3.995203	1.997602	1.997602
O	5.992805	0.000000	1.997602
O	5.992805	1.997602	0.000000
Ba	3.995203	0.000000	3.995203
Cr	5.992805	1.997602	5.992805
O	3.995203	1.997602	5.992805
O	5.992805	0.000000	5.992805
O	5.992805	1.997602	3.995203
Ba	3.995203	3.995203	0.000000
Cr	5.992805	5.992805	1.997602
O	3.995203	5.992805	1.997602
O	5.992805	3.995203	1.997602
O	5.992805	5.992805	0.000000
Ba	3.995203	3.995203	3.995203
Cr	5.992805	5.992805	5.992805
O	3.995203	5.992805	5.992805
O	5.992805	3.995203	5.992805
O	5.992805	5.992805	3.995203
