112

Er	0.000000	0.000000	0.000000
Er	2.406376	-2.407334	-2.407334
Na	-1.203188	-1.203667	-3.611001
Na	3.609565	1.203667	-1.203667
Na	6.015941	-1.203667	-1.203667
Na	1.203188	1.203667	-3.611001
O	3.627672	-1.185555	-1.185555
O	-1.185081	1.185555	-3.629112
O	1.185081	-1.185555	-3.629112
O	1.221295	1.221779	-1.221779
O	5.997834	1.185555	-1.185555
O	1.221295	3.592889	-3.592889
O	3.591457	3.592889	-1.221779
O	3.591457	1.221779	-3.592889
Er	4.812753	4.814667	0.000000
Er	7.219129	2.407334	-2.407334
Na	3.609565	3.611001	-3.611001
Na	8.422317	6.018334	-1.203667
Na	10.828694	3.611001	-1.203667
Na	6.015941	6.018334	-3.611001
O	8.440424	3.629112	-1.185555
O	3.627672	6.000223	-3.629112
O	5.997834	3.629112	-3.629112
O	6.034048	6.036446	-1.221779
O	10.810586	6.000223	-1.185555
O	6.034048	8.407556	-3.592889
O	8.404210	8.407556	-1.221779
O	8.404210	6.036446	-3.592889
Er	-4.812753	0.000000	-4.814667
Er	-2.406376	-2.407334	-7.222001
Na	-6.015941	-1.203667	-8.425668
Na	-1.203188	1.203667	-6.018334
Na	1.203188	-1.203667	-6.018334
Na	-3.609565	1.203667	-8.425668
O	-1.185081	-1.185555	-6.000223
O	-5.997834	1.185555	-8.443780
O	-3.627672	-1.185555	-8.443780
O	-3.591457	1.221779	-6.036446
O	1.185081	1.185555	-6.000223
O	-3.591457	3.592889	-8.407556
O	-1.221295	3.592889	-6.036446
O	-1.221295	1.221779	-8.407556
Er	0.000000	4.814667	-4.814667
Er	2.406376	2.407334	-7.222001
Na	-1.203188	3.611001	-8.425668
Na	3.609565	6.018334	-6.018334
Na	6.015941	3.611001	-6.018334
Na	1.203188	6.018334	-8.425668
O	3.627672	3.629112	-6.000223
O	-1.185081	6.000223	-8.443780
O	1.185081	3.629112	-8.443780
O	1.221295	6.036446	-6.036446
O	5.997834	6.000223	-6.000223
O	1.221295	8.407556	-8.407556
O	3.591457	8.407556	-6.036446
O	3.591457	6.036446	-8.407556
Er	4.812753	-4.814667	0.000000
Er	7.219129	-7.222001	-2.407334
Na	3.609565	-6.018334	-3.611001
Na	8.422317	-3.611001	-1.203667
Na	10.828694	-6.018334	-1.203667
Na	6.015941	-3.611001	-3.611001
O	8.440424	-6.000223	-1.185555
O	3.627672	-3.629112	-3.629112
O	5.997834	-6.000223	-3.629112
O	6.034048	-3.592889	-1.221779
O	10.810586	-3.629112	-1.185555
O	6.034048	-1.221779	-3.592889
O	8.404210	-1.221779	-1.221779
O	8.404210	-3.592889	-3.592889
Er	9.625505	0.000000	0.000000
Er	12.031882	-2.407334	-2.407334
Na	8.422317	-1.203667	-3.611001
Na	13.235070	1.203667	-1.203667
Na	15.641446	-1.203667	-1.203667
Na	10.828694	1.203667	-3.611001
O	13.253177	-1.185555	-1.185555
O	8.440424	1.185555	-3.629112
O	10.810586	-1.185555	-3.629112
O	10.846801	1.221779	-1.221779
O	15.623339	1.185555	-1.185555
O	10.846801	3.592889	-3.592889
O	13.216963	3.592889	-1.221779
O	13.216963	1.221779	-3.592889
Er	0.000000	-4.814667	-4.814667
Er	2.406376	-7.222001	-7.222001
Na	-1.203188	-6.018334	-8.425668
Na	3.609565	-3.611001	-6.018334
Na	6.015941	-6.018334	-6.018334
Na	1.203188	-3.611001	-8.425668
O	3.627672	-6.000223	-6.000223
O	-1.185081	-3.629112	-8.443780
O	1.185081	-6.000223	-8.443780
O	1.221295	-3.592889	-6.036446
O	5.997834	-3.629112	-6.000223
O	1.221295	-1.221779	-8.407556
O	3.591457	-1.221779	-6.036446
O	3.591457	-3.592889	-8.407556
Er	4.812753	0.000000	-4.814667
Er	7.219129	-2.407334	-7.222001
Na	3.609565	-1.203667	-8.425668
Na	8.422317	1.203667	-6.018334
Na	10.828694	-1.203667	-6.018334
Na	6.015941	1.203667	-8.425668
O	8.440424	-1.185555	-6.000223
O	3.627672	1.185555	-8.443780
O	5.997834	-1.185555	-8.443780
O	6.034048	1.221779	-6.036446
O	10.810586	1.185555	-6.000223
O	6.034048	3.592889	-8.407556
O	8.404210	3.592889	-6.036446
O	8.404210	1.221779	-8.407556
