320

O	4.111585	0.000000	0.000000
O	0.000000	4.111585	0.000000
O	5.886926	3.248720	0.403463
O	6.447828	7.360305	0.403463
O	7.819706	1.775341	0.862864
O	4.515048	5.886926	0.862864
O	3.248720	3.708121	1.775341
O	0.862864	7.819706	1.775341
O	7.360305	3.708121	2.336243
O	4.974449	7.819706	2.336243
O	3.708121	1.775341	3.248720
O	0.403463	5.886926	3.248720
O	1.775341	3.248720	3.708121
O	2.336243	7.360305	3.708121
O	0.000000	0.000000	4.111585
O	4.111585	4.111585	4.111585
O	5.886926	0.862864	4.515048
O	6.447828	4.974449	4.515048
O	7.819706	2.336243	4.974449
O	4.515048	6.447828	4.974449
O	3.248720	0.403463	5.886926
O	0.862864	4.515048	5.886926
O	7.360305	0.403463	6.447828
O	4.974449	4.515048	6.447828
O	3.708121	2.336243	7.360305
O	0.403463	6.447828	7.360305
O	1.775341	0.862864	7.819706
O	2.336243	4.974449	7.819706
P	7.304267	3.192683	0.918902
P	5.030486	7.304267	0.918902
P	3.192683	3.192683	3.192683
P	0.918902	7.304267	3.192683
P	7.304267	0.918902	5.030486
P	5.030486	5.030486	5.030486
P	3.192683	0.918902	7.304267
P	0.918902	5.030486	7.304267
Sn	0.000000	0.000000	0.000000
Sn	4.111585	4.111585	0.000000
Sn	4.111585	0.000000	4.111585
Sn	0.000000	4.111585	4.111585
O	4.111585	0.000000	8.223169
O	0.000000	4.111585	8.223169
O	5.886926	3.248720	8.626632
O	6.447828	7.360305	8.626632
O	7.819706	1.775341	9.086033
O	4.515048	5.886926	9.086033
O	3.248720	3.708121	9.998511
O	0.862864	7.819706	9.998511
O	7.360305	3.708121	10.559412
O	4.974449	7.819706	10.559412
O	3.708121	1.775341	11.471889
O	0.403463	5.886926	11.471889
O	1.775341	3.248720	11.931290
O	2.336243	7.360305	11.931290
O	0.000000	0.000000	12.334754
O	4.111585	4.111585	12.334754
O	5.886926	0.862864	12.738217
O	6.447828	4.974449	12.738217
O	7.819706	2.336243	13.197618
O	4.515048	6.447828	13.197618
O	3.248720	0.403463	14.110095
O	0.862864	4.515048	14.110095
O	7.360305	0.403463	14.670997
O	4.974449	4.515048	14.670997
O	3.708121	2.336243	15.583474
O	0.403463	6.447828	15.583474
O	1.775341	0.862864	16.042875
O	2.336243	4.974449	16.042875
P	7.304267	3.192683	9.142071
P	5.030486	7.304267	9.142071
P	3.192683	3.192683	11.415852
P	0.918902	7.304267	11.415852
P	7.304267	0.918902	13.253655
P	5.030486	5.030486	13.253655
P	3.192683	0.918902	15.527437
P	0.918902	5.030486	15.527437
Sn	0.000000	0.000000	8.223169
Sn	4.111585	4.111585	8.223169
Sn	4.111585	0.000000	12.334754
Sn	0.000000	4.111585	12.334754
O	4.111585	8.223169	0.000000
O	0.000000	12.334754	0.000000
O	5.886926	11.471889	0.403463
O	6.447828	15.583474	0.403463
O	7.819706	9.998511	0.862864
O	4.515048	14.110095	0.862864
O	3.248720	11.931290	1.775341
O	0.862864	16.042875	1.775341
O	7.360305	11.931290	2.336243
O	4.974449	16.042875	2.336243
O	3.708121	9.998511	3.248720
O	0.403463	14.110095	3.248720
O	1.775341	11.471889	3.708121
O	2.336243	15.583474	3.708121
O	0.000000	8.223169	4.111585
O	4.111585	12.334754	4.111585
O	5.886926	9.086033	4.515048
O	6.447828	13.197618	4.515048
O	7.819706	10.559412	4.974449
O	4.515048	14.670997	4.974449
O	3.248720	8.626632	5.886926
O	0.862864	12.738217	5.886926
O	7.360305	8.626632	6.447828
O	4.974449	12.738217	6.447828
O	3.708121	10.559412	7.360305
O	0.403463	14.670997	7.360305
O	1.775341	9.086033	7.819706
O	2.336243	13.197618	7.819706
P	7.304267	11.415852	0.918902
P	5.030486	15.527437	0.918902
P	3.192683	11.415852	3.192683
P	0.918902	15.527437	3.192683
P	7.304267	9.142071	5.030486
P	5.030486	13.253655	5.030486
P	3.192683	9.142071	7.304267
P	0.918902	13.253655	7.304267
Sn	0.000000	8.223169	0.000000
Sn	4.111585	12.334754	0.000000
Sn	4.111585	8.223169	4.111585
Sn	0.000000	12.334754	4.111585
O	4.111585	8.223169	8.223169
O	0.000000	12.334754	8.223169
O	5.886926	11.471889	8.626632
O	6.447828	15.583474	8.626632
O	7.819706	9.998511	9.086033
O	4.515048	14.110095	9.086033
O	3.248720	11.931290	9.998511
O	0.862864	16.042875	9.998511
O	7.360305	11.931290	10.559412
O	4.974449	16.042875	10.559412
O	3.708121	9.998511	11.471889
O	0.403463	14.110095	11.471889
O	1.775341	11.471889	11.931290
O	2.336243	15.583474	11.931290
O	0.000000	8.223169	12.334754
O	4.111585	12.334754	12.334754
O	5.886926	9.086033	12.738217
O	6.447828	13.197618	12.738217
O	7.819706	10.559412	13.197618
O	4.515048	14.670997	13.197618
O	3.248720	8.626632	14.110095
O	0.862864	12.738217	14.110095
O	7.360305	8.626632	14.670997
O	4.974449	12.738217	14.670997
O	3.708121	10.559412	15.583474
O	0.403463	14.670997	15.583474
O	1.775341	9.086033	16.042875
O	2.336243	13.197618	16.042875
P	7.304267	11.415852	9.142071
P	5.030486	15.527437	9.142071
P	3.192683	11.415852	11.415852
P	0.918902	15.527437	11.415852
P	7.304267	9.142071	13.253655
P	5.030486	13.253655	13.253655
P	3.192683	9.142071	15.527437
P	0.918902	13.253655	15.527437
Sn	0.000000	8.223169	8.223169
Sn	4.111585	12.334754	8.223169
Sn	4.111585	8.223169	12.334754
Sn	0.000000	12.334754	12.334754
O	12.334754	0.000000	0.000000
O	8.223169	4.111585	0.000000
O	14.110095	3.248720	0.403463
O	14.670997	7.360305	0.403463
O	16.042875	1.775341	0.862864
O	12.738217	5.886926	0.862864
O	11.471889	3.708121	1.775341
O	9.086033	7.819706	1.775341
O	15.583474	3.708121	2.336243
O	13.197618	7.819706	2.336243
O	11.931290	1.775341	3.248720
O	8.626632	5.886926	3.248720
O	9.998511	3.248720	3.708121
O	10.559412	7.360305	3.708121
O	8.223169	0.000000	4.111585
O	12.334754	4.111585	4.111585
O	14.110095	0.862864	4.515048
O	14.670997	4.974449	4.515048
O	16.042875	2.336243	4.974449
O	12.738217	6.447828	4.974449
O	11.471889	0.403463	5.886926
O	9.086033	4.515048	5.886926
O	15.583474	0.403463	6.447828
O	13.197618	4.515048	6.447828
O	11.931290	2.336243	7.360305
O	8.626632	6.447828	7.360305
O	9.998511	0.862864	7.819706
O	10.559412	4.974449	7.819706
P	15.527437	3.192683	0.918902
P	13.253655	7.304267	0.918902
P	11.415852	3.192683	3.192683
P	9.142071	7.304267	3.192683
P	15.527437	0.918902	5.030486
P	13.253655	5.030486	5.030486
P	11.415852	0.918902	7.304267
P	9.142071	5.030486	7.304267
Sn	8.223169	0.000000	0.000000
Sn	12.334754	4.111585	0.000000
Sn	12.334754	0.000000	4.111585
Sn	8.223169	4.111585	4.111585
O	12.334754	0.000000	8.223169
O	8.223169	4.111585	8.223169
O	14.110095	3.248720	8.626632
O	14.670997	7.360305	8.626632
O	16.042875	1.775341	9.086033
O	12.738217	5.886926	9.086033
O	11.471889	3.708121	9.998511
O	9.086033	7.819706	9.998511
O	15.583474	3.708121	10.559412
O	13.197618	7.819706	10.559412
O	11.931290	1.775341	11.471889
O	8.626632	5.886926	11.471889
O	9.998511	3.248720	11.931290
O	10.559412	7.360305	11.931290
O	8.223169	0.000000	12.334754
O	12.334754	4.111585	12.334754
O	14.110095	0.862864	12.738217
O	14.670997	4.974449	12.738217
O	16.042875	2.336243	13.197618
O	12.738217	6.447828	13.197618
O	11.471889	0.403463	14.110095
O	9.086033	4.515048	14.110095
O	15.583474	0.403463	14.670997
O	13.197618	4.515048	14.670997
O	11.931290	2.336243	15.583474
O	8.626632	6.447828	15.583474
O	9.998511	0.862864	16.042875
O	10.559412	4.974449	16.042875
P	15.527437	3.192683	9.142071
P	13.253655	7.304267	9.142071
P	11.415852	3.192683	11.415852
P	9.142071	7.304267	11.415852
P	15.527437	0.918902	13.253655
P	13.253655	5.030486	13.253655
P	11.415852	0.918902	15.527437
P	9.142071	5.030486	15.527437
Sn	8.223169	0.000000	8.223169
Sn	12.334754	4.111585	8.223169
Sn	12.334754	0.000000	12.334754
Sn	8.223169	4.111585	12.334754
O	12.334754	8.223169	0.000000
O	8.223169	12.334754	0.000000
O	14.110095	11.471889	0.403463
O	14.670997	15.583474	0.403463
O	16.042875	9.998511	0.862864
O	12.738217	14.110095	0.862864
O	11.471889	11.931290	1.775341
O	9.086033	16.042875	1.775341
O	15.583474	11.931290	2.336243
O	13.197618	16.042875	2.336243
O	11.931290	9.998511	3.248720
O	8.626632	14.110095	3.248720
O	9.998511	11.471889	3.708121
O	10.559412	15.583474	3.708121
O	8.223169	8.223169	4.111585
O	12.334754	12.334754	4.111585
O	14.110095	9.086033	4.515048
O	14.670997	13.197618	4.515048
O	16.042875	10.559412	4.974449
O	12.738217	14.670997	4.974449
O	11.471889	8.626632	5.886926
O	9.086033	12.738217	5.886926
O	15.583474	8.626632	6.447828
O	13.197618	12.738217	6.447828
O	11.931290	10.559412	7.360305
O	8.626632	14.670997	7.360305
O	9.998511	9.086033	7.819706
O	10.559412	13.197618	7.819706
P	15.527437	11.415852	0.918902
P	13.253655	15.527437	0.918902
P	11.415852	11.415852	3.192683
P	9.142071	15.527437	3.192683
P	15.527437	9.142071	5.030486
P	13.253655	13.253655	5.030486
P	11.415852	9.142071	7.304267
P	9.142071	13.253655	7.304267
Sn	8.223169	8.223169	0.000000
Sn	12.334754	12.334754	0.000000
Sn	12.334754	8.223169	4.111585
Sn	8.223169	12.334754	4.111585
O	12.334754	8.223169	8.223169
O	8.223169	12.334754	8.223169
O	14.110095	11.471889	8.626632
O	14.670997	15.583474	8.626632
O	16.042875	9.998511	9.086033
O	12.738217	14.110095	9.086033
O	11.471889	11.931290	9.998511
O	9.086033	16.042875	9.998511
O	15.583474	11.931290	10.559412
O	13.197618	16.042875	10.559412
O	11.931290	9.998511	11.471889
O	8.626632	14.110095	11.471889
O	9.998511	11.471889	11.931290
O	10.559412	15.583474	11.931290
O	8.223169	8.223169	12.334754
O	12.334754	12.334754	12.334754
O	14.110095	9.086033	12.738217
O	14.670997	13.197618	12.738217
O	16.042875	10.559412	13.197618
O	12.738217	14.670997	13.197618
O	11.471889	8.626632	14.110095
O	9.086033	12.738217	14.110095
O	15.583474	8.626632	14.670997
O	13.197618	12.738217	14.670997
O	11.931290	10.559412	15.583474
O	8.626632	14.670997	15.583474
O	9.998511	9.086033	16.042875
O	10.559412	13.197618	16.042875
P	15.527437	11.415852	9.142071
P	13.253655	15.527437	9.142071
P	11.415852	11.415852	11.415852
P	9.142071	15.527437	11.415852
P	15.527437	9.142071	13.253655
P	13.253655	13.253655	13.253655
P	11.415852	9.142071	15.527437
P	9.142071	13.253655	15.527437
Sn	8.223169	8.223169	8.223169
Sn	12.334754	12.334754	8.223169
Sn	12.334754	8.223169	12.334754
Sn	8.223169	12.334754	12.334754
