40

Co	0.000000	0.000000	0.000000
Er	2.154228	2.154228	2.154228
O	2.154228	2.154228	0.000000
O	2.154228	0.000000	2.154228
O	0.000000	2.154228	2.154228
Co	0.000000	0.000000	4.308456
Er	2.154228	2.154228	6.462684
O	2.154228	2.154228	4.308456
O	2.154228	0.000000	6.462684
O	0.000000	2.154228	6.462684
Co	0.000000	4.308456	0.000000
Er	2.154228	6.462684	2.154228
O	2.154228	6.462684	0.000000
O	2.154228	4.308456	2.154228
O	0.000000	6.462684	2.154228
Co	0.000000	4.308456	4.308456
Er	2.154228	6.462684	6.462684
O	2.154228	6.462684	4.308456
O	2.154228	4.308456	6.462684
O	0.000000	6.462684	6.462684
Co	4.308456	0.000000	0.000000
Er	6.462684	2.154228	2.154228
O	6.462684	2.154228	0.000000
O	6.462684	0.000000	2.154228
O	4.308456	2.154228	2.154228
Co	4.308456	0.000000	4.308456
Er	6.462684	2.154228	6.462684
O	6.462684	2.154228	4.308456
O	6.462684	0.000000	6.462684
O	4.308456	2.154228	6.462684
Co	4.308456	4.308456	0.000000
Er	6.462684	6.462684	2.154228
O	6.462684	6.462684	0.000000
O	6.462684	4.308456	2.154228
O	4.308456	6.462684	2.154228
Co	4.308456	4.308456	4.308456
Er	6.462684	6.462684	6.462684
O	6.462684	6.462684	4.308456
O	6.462684	4.308456	6.462684
O	4.308456	6.462684	6.462684
