112

B	0.000000	0.000000	0.000000
B	2.328935	-2.329392	-2.329392
O	3.656603	-1.001071	-1.001071
O	-1.001268	1.001071	-3.657722
O	1.001268	-1.001071	-3.657722
O	1.327668	1.328330	-1.328330
O	5.659139	1.001071	-1.001071
O	1.327668	3.330463	-3.330463
O	3.330203	3.330463	-1.328330
O	3.330203	1.328330	-3.330463
Sn	-1.164463	-1.164701	-3.494092
Sn	5.822334	-1.164701	-1.164701
Sn	1.164463	1.164701	-3.494092
Sn	3.493398	1.164701	-1.164701
B	4.657871	4.658788	0.000000
B	6.986806	2.329396	-2.329392
O	8.314474	3.657717	-1.001071
O	3.656603	5.659859	-3.657722
O	5.659138	3.657717	-3.657722
O	5.985538	5.987118	-1.328330
O	10.317009	5.659859	-1.001071
O	5.985538	7.989251	-3.330463
O	7.988074	7.989251	-1.328330
O	7.988074	5.987118	-3.330463
Sn	3.493408	3.494087	-3.494092
Sn	10.480204	3.494087	-1.164701
Sn	5.822334	5.823489	-3.494092
Sn	8.151269	5.823489	-1.164701
B	-4.657871	0.000000	-4.658788
B	-2.328935	-2.329392	-6.988180
O	-1.001268	-1.001071	-5.659859
O	-5.659138	1.001071	-8.316510
O	-3.656603	-1.001071	-8.316510
O	-3.330203	1.328330	-5.987118
O	1.001268	1.001071	-5.659859
O	-3.330203	3.330463	-7.989251
O	-1.327668	3.330463	-5.987118
O	-1.327668	1.328330	-7.989251
Sn	-5.822333	-1.164701	-8.152880
Sn	1.164463	-1.164701	-5.823489
Sn	-3.493408	1.164701	-8.152880
Sn	-1.164473	1.164701	-5.823489
B	0.000000	4.658788	-4.658788
B	2.328935	2.329396	-6.988180
O	3.656603	3.657717	-5.659859
O	-1.001268	5.659859	-8.316510
O	1.001268	3.657717	-8.316510
O	1.327668	5.987118	-5.987118
O	5.659139	5.659859	-5.659859
O	1.327668	7.989251	-7.989251
O	3.330203	7.989251	-5.987118
O	3.330203	5.987118	-7.989251
Sn	-1.164463	3.494087	-8.152880
Sn	5.822334	3.494087	-5.823489
Sn	1.164463	5.823489	-8.152880
Sn	3.493398	5.823489	-5.823489
B	4.657871	-4.658788	0.000000
B	6.986806	-6.988180	-2.329392
O	8.314474	-5.659859	-1.001071
O	3.656603	-3.657717	-3.657722
O	5.659138	-5.659859	-3.657722
O	5.985538	-3.330458	-1.328330
O	10.317009	-3.657717	-1.001071
O	5.985538	-1.328325	-3.330463
O	7.988074	-1.328325	-1.328330
O	7.988074	-3.330458	-3.330463
Sn	3.493408	-5.823489	-3.494092
Sn	10.480204	-5.823489	-1.164701
Sn	5.822334	-3.494087	-3.494092
Sn	8.151269	-3.494087	-1.164701
B	9.315742	0.000000	0.000000
B	11.644677	-2.329392	-2.329392
O	12.972345	-1.001071	-1.001071
O	8.314474	1.001071	-3.657722
O	10.317009	-1.001071	-3.657722
O	10.643409	1.328330	-1.328330
O	14.974880	1.001071	-1.001071
O	10.643409	3.330463	-3.330463
O	12.645945	3.330463	-1.328330
O	12.645945	1.328330	-3.330463
Sn	8.151279	-1.164701	-3.494092
Sn	15.138075	-1.164701	-1.164701
Sn	10.480204	1.164701	-3.494092
Sn	12.809140	1.164701	-1.164701
B	0.000000	-4.658788	-4.658788
B	2.328935	-6.988180	-6.988180
O	3.656603	-5.659859	-5.659859
O	-1.001268	-3.657717	-8.316510
O	1.001268	-5.659859	-8.316510
O	1.327668	-3.330458	-5.987118
O	5.659139	-3.657717	-5.659859
O	1.327668	-1.328325	-7.989251
O	3.330203	-1.328325	-5.987118
O	3.330203	-3.330458	-7.989251
Sn	-1.164463	-5.823489	-8.152880
Sn	5.822334	-5.823489	-5.823489
Sn	1.164463	-3.494087	-8.152880
Sn	3.493398	-3.494087	-5.823489
B	4.657871	0.000000	-4.658788
B	6.986806	-2.329392	-6.988180
O	8.314474	-1.001071	-5.659859
O	3.656603	1.001071	-8.316510
O	5.659138	-1.001071	-8.316510
O	5.985538	1.328330	-5.987118
O	10.317009	1.001071	-5.659859
O	5.985538	3.330463	-7.989251
O	7.988074	3.330463	-5.987118
O	7.988074	1.328330	-7.989251
Sn	3.493408	-1.164701	-8.152880
Sn	10.480204	-1.164701	-5.823489
Sn	5.822334	1.164701	-8.152880
Sn	8.151269	1.164701	-5.823489
