112

Be	0.000000	0.000000	0.000000
Be	2.058985	-2.059133	-2.059133
Ir	-1.029487	-1.029567	-3.088700
Ir	1.029487	1.029567	-3.088700
Ir	3.088472	1.029567	-1.029567
Ir	5.147457	-1.029567	-1.029567
O	0.990470	0.990763	-0.990763
O	-1.068514	1.068370	-3.049897
O	3.049455	-1.068370	-1.068370
O	1.068514	-1.068370	-3.049897
O	0.990470	3.127503	-3.127503
O	3.127489	3.127503	-0.990763
O	3.127489	0.990763	-3.127503
O	5.186474	1.068370	-1.068370
Be	4.117964	4.118269	0.000000
Be	6.176949	2.059136	-2.059133
Ir	3.088477	3.088702	-3.088700
Ir	5.147451	5.147836	-3.088700
Ir	7.206436	5.147836	-1.029567
Ir	9.265421	3.088702	-1.029567
O	5.108434	5.109032	-0.990763
O	3.049450	5.186639	-3.049897
O	7.167419	3.049899	-1.068370
O	5.186478	3.049899	-3.049897
O	5.108434	7.245772	-3.127503
O	7.245453	7.245772	-0.990763
O	7.245453	5.109032	-3.127503
O	9.304438	5.186639	-1.068370
Be	-4.117964	0.000000	-4.118269
Be	-2.058979	-2.059133	-6.177402
Ir	-5.147451	-1.029567	-7.206969
Ir	-3.088477	1.029567	-7.206969
Ir	-1.029492	1.029567	-5.147836
Ir	1.029493	-1.029567	-5.147836
O	-3.127494	0.990763	-5.109032
O	-5.186478	1.068370	-7.168166
O	-1.068509	-1.068370	-5.186639
O	-3.049450	-1.068370	-7.168166
O	-3.127494	3.127503	-7.245772
O	-0.990475	3.127503	-5.109032
O	-0.990475	0.990763	-7.245772
O	1.068510	1.068370	-5.186639
Be	0.000000	4.118269	-4.118269
Be	2.058985	2.059136	-6.177402
Ir	-1.029487	3.088702	-7.206969
Ir	1.029487	5.147836	-7.206969
Ir	3.088472	5.147836	-5.147836
Ir	5.147457	3.088702	-5.147836
O	0.990470	5.109032	-5.109032
O	-1.068514	5.186639	-7.168166
O	3.049455	3.049899	-5.186639
O	1.068514	3.049899	-7.168166
O	0.990470	7.245772	-7.245772
O	3.127489	7.245772	-5.109032
O	3.127489	5.109032	-7.245772
O	5.186474	5.186639	-5.186639
Be	4.117964	-4.118269	0.000000
Be	6.176949	-6.177402	-2.059133
Ir	3.088477	-5.147836	-3.088700
Ir	5.147451	-3.088702	-3.088700
Ir	7.206436	-3.088702	-1.029567
Ir	9.265421	-5.147836	-1.029567
O	5.108434	-3.127506	-0.990763
O	3.049450	-3.049899	-3.049897
O	7.167419	-5.186639	-1.068370
O	5.186478	-5.186639	-3.049897
O	5.108434	-0.990766	-3.127503
O	7.245453	-0.990766	-0.990763
O	7.245453	-3.127506	-3.127503
O	9.304438	-3.049899	-1.068370
Be	8.235928	0.000000	0.000000
Be	10.294913	-2.059133	-2.059133
Ir	7.206441	-1.029567	-3.088700
Ir	9.265415	1.029567	-3.088700
Ir	11.324400	1.029567	-1.029567
Ir	13.383385	-1.029567	-1.029567
O	9.226398	0.990763	-0.990763
O	7.167414	1.068370	-3.049897
O	11.285383	-1.068370	-1.068370
O	9.304442	-1.068370	-3.049897
O	9.226398	3.127503	-3.127503
O	11.363417	3.127503	-0.990763
O	11.363417	0.990763	-3.127503
O	13.422402	1.068370	-1.068370
Be	0.000000	-4.118269	-4.118269
Be	2.058985	-6.177402	-6.177402
Ir	-1.029487	-5.147836	-7.206969
Ir	1.029487	-3.088702	-7.206969
Ir	3.088472	-3.088702	-5.147836
Ir	5.147457	-5.147836	-5.147836
O	0.990470	-3.127506	-5.109032
O	-1.068514	-3.049899	-7.168166
O	3.049455	-5.186639	-5.186639
O	1.068514	-5.186639	-7.168166
O	0.990470	-0.990766	-7.245772
O	3.127489	-0.990766	-5.109032
O	3.127489	-3.127506	-7.245772
O	5.186474	-3.049899	-5.186639
Be	4.117964	0.000000	-4.118269
Be	6.176949	-2.059133	-6.177402
Ir	3.088477	-1.029567	-7.206969
Ir	5.147451	1.029567	-7.206969
Ir	7.206436	1.029567	-5.147836
Ir	9.265421	-1.029567	-5.147836
O	5.108434	0.990763	-5.109032
O	3.049450	1.068370	-7.168166
O	7.167419	-1.068370	-5.186639
O	5.186478	-1.068370	-7.168166
O	5.108434	3.127503	-7.245772
O	7.245453	3.127503	-5.109032
O	7.245453	0.990763	-7.245772
O	9.304438	1.068370	-5.186639
