112

Bi	0.000000	0.000000	0.000000
Bi	2.563754	-2.564095	-2.564095
K	-1.281882	-1.282047	-3.846142
K	6.409390	-1.282047	-1.282047
K	3.845636	1.282047	-1.282047
K	1.281882	1.282047	-3.846142
O	1.168295	1.168876	-1.168876
O	3.732049	-1.395219	-1.395219
O	-1.395459	1.395219	-3.732970
O	1.395459	-1.395219	-3.732970
O	1.168295	3.959314	-3.959314
O	3.959213	3.959314	-1.168876
O	3.959213	1.168876	-3.959314
O	6.522967	1.395219	-1.395219
Bi	5.127509	5.128187	0.000000
Bi	7.691263	2.564092	-2.564095
K	3.845627	3.846139	-3.846142
K	11.536899	3.846139	-1.282047
K	8.973145	6.410234	-1.282047
K	6.409391	6.410234	-3.846142
O	6.295804	6.297062	-1.168876
O	8.859558	3.732968	-1.395219
O	3.732050	6.523406	-3.732970
O	6.522968	3.732968	-3.732970
O	6.295804	9.087500	-3.959314
O	9.086722	9.087500	-1.168876
O	9.086722	6.297062	-3.959314
O	11.650476	6.523406	-1.395219
Bi	-5.127509	0.000000	-5.128187
Bi	-2.563755	-2.564095	-7.692281
K	-6.409391	-1.282047	-8.974329
K	1.281880	-1.282047	-6.410234
K	-1.281874	1.282047	-6.410234
K	-3.845627	1.282047	-8.974329
O	-3.959214	1.168876	-6.297062
O	-1.395460	-1.395219	-6.523406
O	-6.522968	1.395219	-8.861157
O	-3.732050	-1.395219	-8.861157
O	-3.959214	3.959314	-9.087500
O	-1.168297	3.959314	-6.297062
O	-1.168297	1.168876	-9.087500
O	1.395457	1.395219	-6.523406
Bi	0.000000	5.128187	-5.128187
Bi	2.563754	2.564092	-7.692281
K	-1.281882	3.846139	-8.974329
K	6.409390	3.846139	-6.410234
K	3.845636	6.410234	-6.410234
K	1.281882	6.410234	-8.974329
O	1.168295	6.297062	-6.297062
O	3.732049	3.732968	-6.523406
O	-1.395459	6.523406	-8.861157
O	1.395459	3.732968	-8.861157
O	1.168295	9.087500	-9.087500
O	3.959213	9.087500	-6.297062
O	3.959213	6.297062	-9.087500
O	6.522967	6.523406	-6.523406
Bi	5.127509	-5.128187	0.000000
Bi	7.691263	-7.692281	-2.564095
K	3.845627	-6.410234	-3.846142
K	11.536899	-6.410234	-1.282047
K	8.973145	-3.846139	-1.282047
K	6.409391	-3.846139	-3.846142
O	6.295804	-3.959311	-1.168876
O	8.859558	-6.523406	-1.395219
O	3.732050	-3.732968	-3.732970
O	6.522968	-6.523406	-3.732970
O	6.295804	-1.168873	-3.959314
O	9.086722	-1.168873	-1.168876
O	9.086722	-3.959311	-3.959314
O	11.650476	-3.732968	-1.395219
Bi	10.255019	0.000000	0.000000
Bi	12.818772	-2.564095	-2.564095
K	8.973137	-1.282047	-3.846142
K	16.664408	-1.282047	-1.282047
K	14.100654	1.282047	-1.282047
K	11.536900	1.282047	-3.846142
O	11.423314	1.168876	-1.168876
O	13.987067	-1.395219	-1.395219
O	8.859560	1.395219	-3.732970
O	11.650477	-1.395219	-3.732970
O	11.423314	3.959314	-3.959314
O	14.214231	3.959314	-1.168876
O	14.214231	1.168876	-3.959314
O	16.777985	1.395219	-1.395219
Bi	0.000000	-5.128187	-5.128187
Bi	2.563754	-7.692281	-7.692281
K	-1.281882	-6.410234	-8.974329
K	6.409390	-6.410234	-6.410234
K	3.845636	-3.846139	-6.410234
K	1.281882	-3.846139	-8.974329
O	1.168295	-3.959311	-6.297062
O	3.732049	-6.523406	-6.523406
O	-1.395459	-3.732968	-8.861157
O	1.395459	-6.523406	-8.861157
O	1.168295	-1.168873	-9.087500
O	3.959213	-1.168873	-6.297062
O	3.959213	-3.959311	-9.087500
O	6.522967	-3.732968	-6.523406
Bi	5.127509	0.000000	-5.128187
Bi	7.691263	-2.564095	-7.692281
K	3.845627	-1.282047	-8.974329
K	11.536899	-1.282047	-6.410234
K	8.973145	1.282047	-6.410234
K	6.409391	1.282047	-8.974329
O	6.295804	1.168876	-6.297062
O	8.859558	-1.395219	-6.523406
O	3.732050	1.395219	-8.861157
O	6.522968	-1.395219	-8.861157
O	6.295804	3.959314	-9.087500
O	9.086722	3.959314	-6.297062
O	9.086722	1.168876	-9.087500
O	11.650476	1.395219	-6.523406
