112

Ce	0.000000	0.000000	0.000000
Ce	2.348944	-2.347519	-2.347519
O	3.709789	-0.986083	-0.986083
O	-0.988099	0.986083	-3.708955
O	0.988099	-0.986083	-3.708955
O	1.360845	1.361436	-1.361436
O	5.685987	0.986083	-0.986083
O	1.360845	3.333602	-3.333602
O	3.337043	3.333602	-1.361436
O	3.337043	1.361436	-3.333602
Pt	-1.174472	-1.173760	-3.521279
Pt	3.523416	1.173760	-1.173760
Pt	5.872360	-1.173760	-1.173760
Pt	1.174472	1.173760	-3.521279
Ce	4.697888	4.695038	0.000000
Ce	7.046832	2.347519	-2.347519
O	8.407677	3.708955	-0.986083
O	3.709789	5.681122	-3.708955
O	5.685987	3.708955	-3.708955
O	6.058733	6.056474	-1.361436
O	10.383875	5.681122	-0.986083
O	6.058733	8.028641	-3.333602
O	8.034931	8.028641	-1.361436
O	8.034931	6.056474	-3.333602
Pt	3.523416	3.521279	-3.521279
Pt	8.221304	5.868798	-1.173760
Pt	10.570248	3.521279	-1.173760
Pt	5.872360	5.868798	-3.521279
Ce	-4.697888	0.000000	-4.695038
Ce	-2.348944	-2.347519	-7.042557
O	-0.988099	-0.986083	-5.681122
O	-5.685987	0.986083	-8.403993
O	-3.709789	-0.986083	-8.403993
O	-3.337043	1.361436	-6.056474
O	0.988099	0.986083	-5.681122
O	-3.337043	3.333602	-8.028641
O	-1.360845	3.333602	-6.056474
O	-1.360845	1.361436	-8.028641
Pt	-5.872360	-1.173760	-8.216317
Pt	-1.174472	1.173760	-5.868798
Pt	1.174472	-1.173760	-5.868798
Pt	-3.523416	1.173760	-8.216317
Ce	0.000000	4.695038	-4.695038
Ce	2.348944	2.347519	-7.042557
O	3.709789	3.708955	-5.681122
O	-0.988099	5.681122	-8.403993
O	0.988099	3.708955	-8.403993
O	1.360845	6.056474	-6.056474
O	5.685987	5.681122	-5.681122
O	1.360845	8.028641	-8.028641
O	3.337043	8.028641	-6.056474
O	3.337043	6.056474	-8.028641
Pt	-1.174472	3.521279	-8.216317
Pt	3.523416	5.868798	-5.868798
Pt	5.872360	3.521279	-5.868798
Pt	1.174472	5.868798	-8.216317
Ce	4.697888	-4.695038	0.000000
Ce	7.046832	-7.042557	-2.347519
O	8.407677	-5.681122	-0.986083
O	3.709789	-3.708955	-3.708955
O	5.685987	-5.681122	-3.708955
O	6.058733	-3.333602	-1.361436
O	10.383875	-3.708955	-0.986083
O	6.058733	-1.361436	-3.333602
O	8.034931	-1.361436	-1.361436
O	8.034931	-3.333602	-3.333602
Pt	3.523416	-5.868798	-3.521279
Pt	8.221304	-3.521279	-1.173760
Pt	10.570248	-5.868798	-1.173760
Pt	5.872360	-3.521279	-3.521279
Ce	9.395776	0.000000	0.000000
Ce	11.744720	-2.347519	-2.347519
O	13.105565	-0.986083	-0.986083
O	8.407677	0.986083	-3.708955
O	10.383875	-0.986083	-3.708955
O	10.756621	1.361436	-1.361436
O	15.081763	0.986083	-0.986083
O	10.756621	3.333602	-3.333602
O	12.732819	3.333602	-1.361436
O	12.732819	1.361436	-3.333602
Pt	8.221304	-1.173760	-3.521279
Pt	12.919192	1.173760	-1.173760
Pt	15.268136	-1.173760	-1.173760
Pt	10.570248	1.173760	-3.521279
Ce	0.000000	-4.695038	-4.695038
Ce	2.348944	-7.042557	-7.042557
O	3.709789	-5.681122	-5.681122
O	-0.988099	-3.708955	-8.403993
O	0.988099	-5.681122	-8.403993
O	1.360845	-3.333602	-6.056474
O	5.685987	-3.708955	-5.681122
O	1.360845	-1.361436	-8.028641
O	3.337043	-1.361436	-6.056474
O	3.337043	-3.333602	-8.028641
Pt	-1.174472	-5.868798	-8.216317
Pt	3.523416	-3.521279	-5.868798
Pt	5.872360	-5.868798	-5.868798
Pt	1.174472	-3.521279	-8.216317
Ce	4.697888	0.000000	-4.695038
Ce	7.046832	-2.347519	-7.042557
O	8.407677	-0.986083	-5.681122
O	3.709789	0.986083	-8.403993
O	5.685987	-0.986083	-8.403993
O	6.058733	1.361436	-6.056474
O	10.383875	0.986083	-5.681122
O	6.058733	3.333602	-8.028641
O	8.034931	3.333602	-6.056474
O	8.034931	1.361436	-8.028641
Pt	3.523416	-1.173760	-8.216317
Pt	8.221304	1.173760	-5.868798
Pt	10.570248	-1.173760	-5.868798
Pt	5.872360	1.173760	-8.216317
