40

Cr	1.939870	1.939870	1.939870
O	1.939870	1.939870	0.000000
O	0.000000	1.939870	1.939870
O	1.939870	0.000000	1.939870
Pr	0.000000	0.000000	0.000000
Cr	1.939870	1.939870	5.819606
O	1.939870	1.939870	3.879736
O	0.000000	1.939870	5.819606
O	1.939870	0.000000	5.819606
Pr	0.000000	0.000000	3.879736
Cr	1.939870	5.819606	1.939870
O	1.939870	5.819606	0.000000
O	0.000000	5.819606	1.939870
O	1.939870	3.879736	1.939870
Pr	0.000000	3.879736	0.000000
Cr	1.939870	5.819606	5.819606
O	1.939870	5.819606	3.879736
O	0.000000	5.819606	5.819606
O	1.939870	3.879736	5.819606
Pr	0.000000	3.879736	3.879736
Cr	5.819606	1.939870	1.939870
O	5.819606	1.939870	0.000000
O	3.879736	1.939870	1.939870
O	5.819606	0.000000	1.939870
Pr	3.879736	0.000000	0.000000
Cr	5.819606	1.939870	5.819606
O	5.819606	1.939870	3.879736
O	3.879736	1.939870	5.819606
O	5.819606	0.000000	5.819606
Pr	3.879736	0.000000	3.879736
Cr	5.819606	5.819606	1.939870
O	5.819606	5.819606	0.000000
O	3.879736	5.819606	1.939870
O	5.819606	3.879736	1.939870
Pr	3.879736	3.879736	0.000000
Cr	5.819606	5.819606	5.819606
O	5.819606	5.819606	3.879736
O	3.879736	5.819606	5.819606
O	5.819606	3.879736	5.819606
Pr	3.879736	3.879736	3.879736
