40

Cr	0.000000	0.000000	0.000000
O	2.259019	2.259019	0.000000
O	2.259019	0.000000	2.259019
O	0.000000	2.259019	2.259019
Pr	2.259019	2.259019	2.259019
Cr	0.000000	0.000000	4.518037
O	2.259019	2.259019	4.518037
O	2.259019	0.000000	6.777056
O	0.000000	2.259019	6.777056
Pr	2.259019	2.259019	6.777056
Cr	0.000000	4.518037	0.000000
O	2.259019	6.777056	0.000000
O	2.259019	4.518037	2.259019
O	0.000000	6.777056	2.259019
Pr	2.259019	6.777056	2.259019
Cr	0.000000	4.518037	4.518037
O	2.259019	6.777056	4.518037
O	2.259019	4.518037	6.777056
O	0.000000	6.777056	6.777056
Pr	2.259019	6.777056	6.777056
Cr	4.518037	0.000000	0.000000
O	6.777056	2.259019	0.000000
O	6.777056	0.000000	2.259019
O	4.518037	2.259019	2.259019
Pr	6.777056	2.259019	2.259019
Cr	4.518037	0.000000	4.518037
O	6.777056	2.259019	4.518037
O	6.777056	0.000000	6.777056
O	4.518037	2.259019	6.777056
Pr	6.777056	2.259019	6.777056
Cr	4.518037	4.518037	0.000000
O	6.777056	6.777056	0.000000
O	6.777056	4.518037	2.259019
O	4.518037	6.777056	2.259019
Pr	6.777056	6.777056	2.259019
Cr	4.518037	4.518037	4.518037
O	6.777056	6.777056	4.518037
O	6.777056	4.518037	6.777056
O	4.518037	6.777056	6.777056
Pr	6.777056	6.777056	6.777056
