40

In	2.056767	2.056767	2.056767
Nd	0.000000	0.000000	0.000000
O	2.056767	2.056767	0.000000
O	0.000000	2.056767	2.056767
O	2.056767	0.000000	2.056767
In	2.056767	2.056767	6.170294
Nd	0.000000	0.000000	4.113526
O	2.056767	2.056767	4.113526
O	0.000000	2.056767	6.170294
O	2.056767	0.000000	6.170294
In	2.056767	6.170294	2.056767
Nd	0.000000	4.113526	0.000000
O	2.056767	6.170294	0.000000
O	0.000000	6.170294	2.056767
O	2.056767	4.113526	2.056767
In	2.056767	6.170294	6.170294
Nd	0.000000	4.113526	4.113526
O	2.056767	6.170294	4.113526
O	0.000000	6.170294	6.170294
O	2.056767	4.113526	6.170294
In	6.170294	2.056767	2.056767
Nd	4.113526	0.000000	0.000000
O	6.170294	2.056767	0.000000
O	4.113526	2.056767	2.056767
O	6.170294	0.000000	2.056767
In	6.170294	2.056767	6.170294
Nd	4.113526	0.000000	4.113526
O	6.170294	2.056767	4.113526
O	4.113526	2.056767	6.170294
O	6.170294	0.000000	6.170294
In	6.170294	6.170294	2.056767
Nd	4.113526	4.113526	0.000000
O	6.170294	6.170294	0.000000
O	4.113526	6.170294	2.056767
O	6.170294	4.113526	2.056767
In	6.170294	6.170294	6.170294
Nd	4.113526	4.113526	4.113526
O	6.170294	6.170294	4.113526
O	4.113526	6.170294	6.170294
O	6.170294	4.113526	6.170294
