40

Nb	2.040423	2.040423	2.040423
O	0.000000	2.040423	2.040423
O	2.040423	0.000000	2.040423
O	2.040423	2.040423	0.000000
Sn	0.000000	0.000000	0.000000
Nb	2.040423	2.040423	6.121269
O	0.000000	2.040423	6.121269
O	2.040423	0.000000	6.121269
O	2.040423	2.040423	4.080846
Sn	0.000000	0.000000	4.080846
Nb	2.040423	6.121269	2.040423
O	0.000000	6.121269	2.040423
O	2.040423	4.080846	2.040423
O	2.040423	6.121269	0.000000
Sn	0.000000	4.080846	0.000000
Nb	2.040423	6.121269	6.121269
O	0.000000	6.121269	6.121269
O	2.040423	4.080846	6.121269
O	2.040423	6.121269	4.080846
Sn	0.000000	4.080846	4.080846
Nb	6.121269	2.040423	2.040423
O	4.080846	2.040423	2.040423
O	6.121269	0.000000	2.040423
O	6.121269	2.040423	0.000000
Sn	4.080846	0.000000	0.000000
Nb	6.121269	2.040423	6.121269
O	4.080846	2.040423	6.121269
O	6.121269	0.000000	6.121269
O	6.121269	2.040423	4.080846
Sn	4.080846	0.000000	4.080846
Nb	6.121269	6.121269	2.040423
O	4.080846	6.121269	2.040423
O	6.121269	4.080846	2.040423
O	6.121269	6.121269	0.000000
Sn	4.080846	4.080846	0.000000
Nb	6.121269	6.121269	6.121269
O	4.080846	6.121269	6.121269
O	6.121269	4.080846	6.121269
O	6.121269	6.121269	4.080846
Sn	4.080846	4.080846	4.080846
