40

Bi	0.000000	0.000000	0.000000
Ge	1.973885	1.973885	1.973885
O	0.000000	1.973885	1.973885
O	1.973885	0.000000	1.973885
O	1.973885	1.973885	0.000000
Bi	0.000000	0.000000	3.947771
Ge	1.973885	1.973885	5.921656
O	0.000000	1.973885	5.921656
O	1.973885	0.000000	5.921656
O	1.973885	1.973885	3.947771
Bi	0.000000	3.947771	0.000000
Ge	1.973885	5.921656	1.973885
O	0.000000	5.921656	1.973885
O	1.973885	3.947771	1.973885
O	1.973885	5.921656	0.000000
Bi	0.000000	3.947771	3.947771
Ge	1.973885	5.921656	5.921656
O	0.000000	5.921656	5.921656
O	1.973885	3.947771	5.921656
O	1.973885	5.921656	3.947771
Bi	3.947771	0.000000	0.000000
Ge	5.921656	1.973885	1.973885
O	3.947771	1.973885	1.973885
O	5.921656	0.000000	1.973885
O	5.921656	1.973885	0.000000
Bi	3.947771	0.000000	3.947771
Ge	5.921656	1.973885	5.921656
O	3.947771	1.973885	5.921656
O	5.921656	0.000000	5.921656
O	5.921656	1.973885	3.947771
Bi	3.947771	3.947771	0.000000
Ge	5.921656	5.921656	1.973885
O	3.947771	5.921656	1.973885
O	5.921656	3.947771	1.973885
O	5.921656	5.921656	0.000000
Bi	3.947771	3.947771	3.947771
Ge	5.921656	5.921656	5.921656
O	3.947771	5.921656	5.921656
O	5.921656	3.947771	5.921656
O	5.921656	5.921656	3.947771
