40

O	2.157960	2.157960	0.000000
O	0.000000	2.157960	2.157960
O	2.157960	0.000000	2.157960
Pu	2.157960	2.157960	2.157960
Sc_sv	0.000000	0.000000	0.000000
O	2.157960	2.157960	4.315910
O	0.000000	2.157960	6.473870
O	2.157960	0.000000	6.473870
Pu	2.157960	2.157960	6.473870
Sc_sv	0.000000	0.000000	4.315910
O	2.157960	6.473870	0.000000
O	0.000000	6.473870	2.157960
O	2.157960	4.315910	2.157960
Pu	2.157960	6.473870	2.157960
Sc_sv	0.000000	4.315910	0.000000
O	2.157960	6.473870	4.315910
O	0.000000	6.473870	6.473870
O	2.157960	4.315910	6.473870
Pu	2.157960	6.473870	6.473870
Sc_sv	0.000000	4.315910	4.315910
O	6.473870	2.157960	0.000000
O	4.315910	2.157960	2.157960
O	6.473870	0.000000	2.157960
Pu	6.473870	2.157960	2.157960
Sc_sv	4.315910	0.000000	0.000000
O	6.473870	2.157960	4.315910
O	4.315910	2.157960	6.473870
O	6.473870	0.000000	6.473870
Pu	6.473870	2.157960	6.473870
Sc_sv	4.315910	0.000000	4.315910
O	6.473870	6.473870	0.000000
O	4.315910	6.473870	2.157960
O	6.473870	4.315910	2.157960
Pu	6.473870	6.473870	2.157960
Sc_sv	4.315910	4.315910	0.000000
O	6.473870	6.473870	4.315910
O	4.315910	6.473870	6.473870
O	6.473870	4.315910	6.473870
Pu	6.473870	6.473870	6.473870
Sc_sv	4.315910	4.315910	4.315910
