40

B	1.802464	1.802464	1.802464
O	0.000000	1.802464	1.802464
O	1.802464	0.000000	1.802464
O	1.802464	1.802464	0.000000
Sr	0.000000	0.000000	0.000000
B	1.802464	1.802464	5.407391
O	0.000000	1.802464	5.407391
O	1.802464	0.000000	5.407391
O	1.802464	1.802464	3.604927
Sr	0.000000	0.000000	3.604927
B	1.802464	5.407391	1.802464
O	0.000000	5.407391	1.802464
O	1.802464	3.604927	1.802464
O	1.802464	5.407391	0.000000
Sr	0.000000	3.604927	0.000000
B	1.802464	5.407391	5.407391
O	0.000000	5.407391	5.407391
O	1.802464	3.604927	5.407391
O	1.802464	5.407391	3.604927
Sr	0.000000	3.604927	3.604927
B	5.407391	1.802464	1.802464
O	3.604927	1.802464	1.802464
O	5.407391	0.000000	1.802464
O	5.407391	1.802464	0.000000
Sr	3.604927	0.000000	0.000000
B	5.407391	1.802464	5.407391
O	3.604927	1.802464	5.407391
O	5.407391	0.000000	5.407391
O	5.407391	1.802464	3.604927
Sr	3.604927	0.000000	3.604927
B	5.407391	5.407391	1.802464
O	3.604927	5.407391	1.802464
O	5.407391	3.604927	1.802464
O	5.407391	5.407391	0.000000
Sr	3.604927	3.604927	0.000000
B	5.407391	5.407391	5.407391
O	3.604927	5.407391	5.407391
O	5.407391	3.604927	5.407391
O	5.407391	5.407391	3.604927
Sr	3.604927	3.604927	3.604927
