112

Co	0.000000	0.000000	0.000000
Co	2.120038	-2.120615	-2.120615
O	3.251853	-0.988032	-0.988032
O	-0.988223	0.988032	-3.253198
O	0.988223	-0.988032	-3.253198
O	1.131815	1.132583	-1.132583
O	5.228300	0.988032	-0.988032
O	1.131815	3.108646	-3.108646
O	3.108261	3.108646	-1.132583
O	3.108261	1.132583	-3.108646
Ti	-1.060019	-1.060307	-3.180922
Ti	3.180057	1.060307	-1.060307
Ti	5.300096	-1.060307	-1.060307
Ti	1.060019	1.060307	-3.180922
Co	4.240076	4.241229	0.000000
Co	6.360115	2.120615	-2.120615
O	7.491930	3.253198	-0.988032
O	3.251853	5.229261	-3.253198
O	5.228299	3.253198	-3.253198
O	5.371892	5.373812	-1.132583
O	9.468376	5.229261	-0.988032
O	5.371892	7.349876	-3.108646
O	7.348338	7.349876	-1.132583
O	7.348338	5.373812	-3.108646
Ti	3.180057	3.180922	-3.180922
Ti	7.420134	5.301537	-1.060307
Ti	9.540172	3.180922	-1.060307
Ti	5.300096	5.301537	-3.180922
Co	-4.240076	0.000000	-4.241229
Co	-2.120038	-2.120615	-6.361844
O	-0.988223	-0.988032	-5.229261
O	-5.228300	0.988032	-7.494427
O	-3.251853	-0.988032	-7.494427
O	-3.108261	1.132583	-5.373812
O	0.988223	0.988032	-5.229261
O	-3.108261	3.108646	-7.349876
O	-1.131815	3.108646	-5.373812
O	-1.131815	1.132583	-7.349876
Ti	-5.300096	-1.060307	-7.422151
Ti	-1.060019	1.060307	-5.301537
Ti	1.060019	-1.060307	-5.301537
Ti	-3.180057	1.060307	-7.422151
Co	0.000000	4.241229	-4.241229
Co	2.120038	2.120615	-6.361844
O	3.251853	3.253198	-5.229261
O	-0.988223	5.229261	-7.494427
O	0.988223	3.253198	-7.494427
O	1.131815	5.373812	-5.373812
O	5.228300	5.229261	-5.229261
O	1.131815	7.349876	-7.349876
O	3.108261	7.349876	-5.373812
O	3.108261	5.373812	-7.349876
Ti	-1.060019	3.180922	-7.422151
Ti	3.180057	5.301537	-5.301537
Ti	5.300096	3.180922	-5.301537
Ti	1.060019	5.301537	-7.422151
Co	4.240076	-4.241229	0.000000
Co	6.360115	-6.361844	-2.120615
O	7.491930	-5.229261	-0.988032
O	3.251853	-3.253198	-3.253198
O	5.228299	-5.229261	-3.253198
O	5.371892	-3.108646	-1.132583
O	9.468376	-3.253198	-0.988032
O	5.371892	-1.132583	-3.108646
O	7.348338	-1.132583	-1.132583
O	7.348338	-3.108646	-3.108646
Ti	3.180057	-5.301537	-3.180922
Ti	7.420134	-3.180922	-1.060307
Ti	9.540172	-5.301537	-1.060307
Ti	5.300096	-3.180922	-3.180922
Co	8.480153	0.000000	0.000000
Co	10.600191	-2.120615	-2.120615
O	11.732006	-0.988032	-0.988032
O	7.491930	0.988032	-3.253198
O	9.468376	-0.988032	-3.253198
O	9.611968	1.132583	-1.132583
O	13.708452	0.988032	-0.988032
O	9.611968	3.108646	-3.108646
O	11.588414	3.108646	-1.132583
O	11.588414	1.132583	-3.108646
Ti	7.420134	-1.060307	-3.180922
Ti	11.660210	1.060307	-1.060307
Ti	13.780248	-1.060307	-1.060307
Ti	9.540172	1.060307	-3.180922
Co	0.000000	-4.241229	-4.241229
Co	2.120038	-6.361844	-6.361844
O	3.251853	-5.229261	-5.229261
O	-0.988223	-3.253198	-7.494427
O	0.988223	-5.229261	-7.494427
O	1.131815	-3.108646	-5.373812
O	5.228300	-3.253198	-5.229261
O	1.131815	-1.132583	-7.349876
O	3.108261	-1.132583	-5.373812
O	3.108261	-3.108646	-7.349876
Ti	-1.060019	-5.301537	-7.422151
Ti	3.180057	-3.180922	-5.301537
Ti	5.300096	-5.301537	-5.301537
Ti	1.060019	-3.180922	-7.422151
Co	4.240076	0.000000	-4.241229
Co	6.360115	-2.120615	-6.361844
O	7.491930	-0.988032	-5.229261
O	3.251853	0.988032	-7.494427
O	5.228299	-0.988032	-7.494427
O	5.371892	1.132583	-5.373812
O	9.468376	0.988032	-5.229261
O	5.371892	3.108646	-7.349876
O	7.348338	3.108646	-5.373812
O	7.348338	1.132583	-7.349876
Ti	3.180057	-1.060307	-7.422151
Ti	7.420134	1.060307	-5.301537
Ti	9.540172	-1.060307	-5.301537
Ti	5.300096	1.060307	-7.422151
