40

Fe	0.000000	0.000000	0.000000
O	2.036870	2.036870	0.000000
O	0.000000	2.036870	2.036870
O	2.036870	0.000000	2.036870
Te	2.036870	2.036870	2.036870
Fe	0.000000	0.000000	4.073740
O	2.036870	2.036870	4.073740
O	0.000000	2.036870	6.110610
O	2.036870	0.000000	6.110610
Te	2.036870	2.036870	6.110610
Fe	0.000000	4.073740	0.000000
O	2.036870	6.110610	0.000000
O	0.000000	6.110610	2.036870
O	2.036870	4.073740	2.036870
Te	2.036870	6.110610	2.036870
Fe	0.000000	4.073740	4.073740
O	2.036870	6.110610	4.073740
O	0.000000	6.110610	6.110610
O	2.036870	4.073740	6.110610
Te	2.036870	6.110610	6.110610
Fe	4.073740	0.000000	0.000000
O	6.110610	2.036870	0.000000
O	4.073740	2.036870	2.036870
O	6.110610	0.000000	2.036870
Te	6.110610	2.036870	2.036870
Fe	4.073740	0.000000	4.073740
O	6.110610	2.036870	4.073740
O	4.073740	2.036870	6.110610
O	6.110610	0.000000	6.110610
Te	6.110610	2.036870	6.110610
Fe	4.073740	4.073740	0.000000
O	6.110610	6.110610	0.000000
O	4.073740	6.110610	2.036870
O	6.110610	4.073740	2.036870
Te	6.110610	6.110610	2.036870
Fe	4.073740	4.073740	4.073740
O	6.110610	6.110610	4.073740
O	4.073740	6.110610	6.110610
O	6.110610	4.073740	6.110610
Te	6.110610	6.110610	6.110610
