40

Ga	1.926847	1.926847	1.926847
O	1.926847	1.926847	0.000000
O	1.926847	0.000000	1.926847
O	0.000000	1.926847	1.926847
Te	0.000000	0.000000	0.000000
Ga	1.926847	1.926847	5.780536
O	1.926847	1.926847	3.853689
O	1.926847	0.000000	5.780536
O	0.000000	1.926847	5.780536
Te	0.000000	0.000000	3.853689
Ga	1.926847	5.780536	1.926847
O	1.926847	5.780536	0.000000
O	1.926847	3.853689	1.926847
O	0.000000	5.780536	1.926847
Te	0.000000	3.853689	0.000000
Ga	1.926847	5.780536	5.780536
O	1.926847	5.780536	3.853689
O	1.926847	3.853689	5.780536
O	0.000000	5.780536	5.780536
Te	0.000000	3.853689	3.853689
Ga	5.780536	1.926847	1.926847
O	5.780536	1.926847	0.000000
O	5.780536	0.000000	1.926847
O	3.853689	1.926847	1.926847
Te	3.853689	0.000000	0.000000
Ga	5.780536	1.926847	5.780536
O	5.780536	1.926847	3.853689
O	5.780536	0.000000	5.780536
O	3.853689	1.926847	5.780536
Te	3.853689	0.000000	3.853689
Ga	5.780536	5.780536	1.926847
O	5.780536	5.780536	0.000000
O	5.780536	3.853689	1.926847
O	3.853689	5.780536	1.926847
Te	3.853689	3.853689	0.000000
Ga	5.780536	5.780536	5.780536
O	5.780536	5.780536	3.853689
O	5.780536	3.853689	5.780536
O	3.853689	5.780536	5.780536
Te	3.853689	3.853689	3.853689
