96

Rb	2.013625	2.013625	2.013625
Rb	5.462523	5.462523	2.013625
Rb	5.462523	2.013625	5.462523
Rb	2.013625	5.462523	5.462523
Rb	2.013625	2.013625	5.462523
Rb	5.462523	5.462523	5.462523
Rb	5.462523	2.013625	2.013625
Rb	2.013625	5.462523	2.013625
Bi	0.000000	0.000000	0.000000
O	0.000000	3.738074	3.738074
O	3.738074	3.738074	0.000000
O	3.738074	0.000000	3.738074
Rb	2.013625	2.013625	9.489773
Rb	5.462523	5.462523	9.489773
Rb	5.462523	2.013625	12.938672
Rb	2.013625	5.462523	12.938672
Rb	2.013625	2.013625	12.938672
Rb	5.462523	5.462523	12.938672
Rb	5.462523	2.013625	9.489773
Rb	2.013625	5.462523	9.489773
Bi	0.000000	0.000000	7.476148
O	0.000000	3.738074	11.214222
O	3.738074	3.738074	7.476148
O	3.738074	0.000000	11.214222
Rb	2.013625	9.489773	2.013625
Rb	5.462523	12.938672	2.013625
Rb	5.462523	9.489773	5.462523
Rb	2.013625	12.938672	5.462523
Rb	2.013625	9.489773	5.462523
Rb	5.462523	12.938672	5.462523
Rb	5.462523	9.489773	2.013625
Rb	2.013625	12.938672	2.013625
Bi	0.000000	7.476148	0.000000
O	0.000000	11.214222	3.738074
O	3.738074	11.214222	0.000000
O	3.738074	7.476148	3.738074
Rb	2.013625	9.489773	9.489773
Rb	5.462523	12.938672	9.489773
Rb	5.462523	9.489773	12.938672
Rb	2.013625	12.938672	12.938672
Rb	2.013625	9.489773	12.938672
Rb	5.462523	12.938672	12.938672
Rb	5.462523	9.489773	9.489773
Rb	2.013625	12.938672	9.489773
Bi	0.000000	7.476148	7.476148
O	0.000000	11.214222	11.214222
O	3.738074	11.214222	7.476148
O	3.738074	7.476148	11.214222
Rb	9.489773	2.013625	2.013625
Rb	12.938672	5.462523	2.013625
Rb	12.938672	2.013625	5.462523
Rb	9.489773	5.462523	5.462523
Rb	9.489773	2.013625	5.462523
Rb	12.938672	5.462523	5.462523
Rb	12.938672	2.013625	2.013625
Rb	9.489773	5.462523	2.013625
Bi	7.476148	0.000000	0.000000
O	7.476148	3.738074	3.738074
O	11.214222	3.738074	0.000000
O	11.214222	0.000000	3.738074
Rb	9.489773	2.013625	9.489773
Rb	12.938672	5.462523	9.489773
Rb	12.938672	2.013625	12.938672
Rb	9.489773	5.462523	12.938672
Rb	9.489773	2.013625	12.938672
Rb	12.938672	5.462523	12.938672
Rb	12.938672	2.013625	9.489773
Rb	9.489773	5.462523	9.489773
Bi	7.476148	0.000000	7.476148
O	7.476148	3.738074	11.214222
O	11.214222	3.738074	7.476148
O	11.214222	0.000000	11.214222
Rb	9.489773	9.489773	2.013625
Rb	12.938672	12.938672	2.013625
Rb	12.938672	9.489773	5.462523
Rb	9.489773	12.938672	5.462523
Rb	9.489773	9.489773	5.462523
Rb	12.938672	12.938672	5.462523
Rb	12.938672	9.489773	2.013625
Rb	9.489773	12.938672	2.013625
Bi	7.476148	7.476148	0.000000
O	7.476148	11.214222	3.738074
O	11.214222	11.214222	0.000000
O	11.214222	7.476148	3.738074
Rb	9.489773	9.489773	9.489773
Rb	12.938672	12.938672	9.489773
Rb	12.938672	9.489773	12.938672
Rb	9.489773	12.938672	12.938672
Rb	9.489773	9.489773	12.938672
Rb	12.938672	12.938672	12.938672
Rb	12.938672	9.489773	9.489773
Rb	9.489773	12.938672	9.489773
Bi	7.476148	7.476148	7.476148
O	7.476148	11.214222	11.214222
O	11.214222	11.214222	7.476148
O	11.214222	7.476148	11.214222
