112

O	3.069988	-1.186454	-1.186454
O	-1.186756	1.186454	-3.069521
O	1.186756	-1.186454	-3.069521
O	0.941616	0.941533	-0.941533
O	5.443500	1.186454	-1.186454
O	0.941616	3.314442	-3.314442
O	3.315128	3.314442	-0.941533
O	3.315128	0.941533	-3.314442
Si	0.000000	0.000000	0.000000
Si	2.128372	-2.127988	-2.127988
Ta	-1.064186	-1.063994	-3.191981
Ta	3.192558	1.063994	-1.063994
Ta	5.320930	-1.063994	-1.063994
Ta	1.064186	1.063994	-3.191981
O	7.326732	3.069521	-1.186454
O	3.069988	5.442429	-3.069521
O	5.443500	3.069521	-3.069521
O	5.198360	5.197508	-0.941533
O	9.700245	5.442429	-1.186454
O	5.198360	7.570417	-3.314442
O	7.571873	7.570417	-0.941533
O	7.571872	5.197508	-3.314442
Si	4.256744	4.255975	0.000000
Si	6.385116	2.127987	-2.127988
Ta	3.192558	3.191981	-3.191981
Ta	7.449302	5.319969	-1.063994
Ta	9.577674	3.191981	-1.063994
Ta	5.320930	5.319969	-3.191981
O	-1.186756	-1.186454	-5.442429
O	-5.443500	1.186454	-7.325496
O	-3.069988	-1.186454	-7.325496
O	-3.315128	0.941533	-5.197508
O	1.186756	1.186454	-5.442429
O	-3.315128	3.314442	-7.570417
O	-0.941616	3.314442	-5.197508
O	-0.941616	0.941533	-7.570417
Si	-4.256744	0.000000	-4.255975
Si	-2.128372	-2.127988	-6.383963
Ta	-5.320930	-1.063994	-7.447956
Ta	-1.064186	1.063994	-5.319969
Ta	1.064186	-1.063994	-5.319969
Ta	-3.192558	1.063994	-7.447956
O	3.069988	3.069521	-5.442429
O	-1.186756	5.442429	-7.325496
O	1.186756	3.069521	-7.325496
O	0.941616	5.197508	-5.197508
O	5.443500	5.442429	-5.442429
O	0.941616	7.570417	-7.570417
O	3.315128	7.570417	-5.197508
O	3.315128	5.197508	-7.570417
Si	0.000000	4.255975	-4.255975
Si	2.128372	2.127987	-6.383963
Ta	-1.064186	3.191981	-7.447956
Ta	3.192558	5.319969	-5.319969
Ta	5.320930	3.191981	-5.319969
Ta	1.064186	5.319969	-7.447956
O	7.326732	-5.442429	-1.186454
O	3.069988	-3.069521	-3.069521
O	5.443500	-5.442429	-3.069521
O	5.198360	-3.314442	-0.941533
O	9.700245	-3.069521	-1.186454
O	5.198360	-0.941533	-3.314442
O	7.571873	-0.941533	-0.941533
O	7.571872	-3.314442	-3.314442
Si	4.256744	-4.255975	0.000000
Si	6.385116	-6.383963	-2.127988
Ta	3.192558	-5.319969	-3.191981
Ta	7.449302	-3.191981	-1.063994
Ta	9.577674	-5.319969	-1.063994
Ta	5.320930	-3.191981	-3.191981
O	11.583476	-1.186454	-1.186454
O	7.326732	1.186454	-3.069521
O	9.700245	-1.186454	-3.069521
O	9.455104	0.941533	-0.941533
O	13.956989	1.186454	-1.186454
O	9.455104	3.314442	-3.314442
O	11.828617	3.314442	-0.941533
O	11.828617	0.941533	-3.314442
Si	8.513488	0.000000	0.000000
Si	10.641860	-2.127988	-2.127988
Ta	7.449302	-1.063994	-3.191981
Ta	11.706046	1.063994	-1.063994
Ta	13.834418	-1.063994	-1.063994
Ta	9.577674	1.063994	-3.191981
O	3.069988	-5.442429	-5.442429
O	-1.186756	-3.069521	-7.325496
O	1.186756	-5.442429	-7.325496
O	0.941616	-3.314442	-5.197508
O	5.443500	-3.069521	-5.442429
O	0.941616	-0.941533	-7.570417
O	3.315128	-0.941533	-5.197508
O	3.315128	-3.314442	-7.570417
Si	0.000000	-4.255975	-4.255975
Si	2.128372	-6.383963	-6.383963
Ta	-1.064186	-5.319969	-7.447956
Ta	3.192558	-3.191981	-5.319969
Ta	5.320930	-5.319969	-5.319969
Ta	1.064186	-3.191981	-7.447956
O	7.326732	-1.186454	-5.442429
O	3.069988	1.186454	-7.325496
O	5.443500	-1.186454	-7.325496
O	5.198360	0.941533	-5.197508
O	9.700245	1.186454	-5.442429
O	5.198360	3.314442	-7.570417
O	7.571873	3.314442	-5.197508
O	7.571872	0.941533	-7.570417
Si	4.256744	0.000000	-4.255975
Si	6.385116	-2.127988	-6.383963
Ta	3.192558	-1.063994	-7.447956
Ta	7.449302	1.063994	-5.319969
Ta	9.577674	-1.063994	-5.319969
Ta	5.320930	1.063994	-7.447956
