40

Li	0.000000	0.000000	0.000000
O	2.013040	2.013040	0.000000
O	0.000000	2.013040	2.013040
O	2.013040	0.000000	2.013040
Sn	2.013040	2.013040	2.013040
Li	0.000000	0.000000	4.026066
O	2.013040	2.013040	4.026066
O	0.000000	2.013040	6.039106
O	2.013040	0.000000	6.039106
Sn	2.013040	2.013040	6.039106
Li	0.000000	4.026066	0.000000
O	2.013040	6.039106	0.000000
O	0.000000	6.039106	2.013040
O	2.013040	4.026066	2.013040
Sn	2.013040	6.039106	2.013040
Li	0.000000	4.026066	4.026066
O	2.013040	6.039106	4.026066
O	0.000000	6.039106	6.039106
O	2.013040	4.026066	6.039106
Sn	2.013040	6.039106	6.039106
Li	4.026066	0.000000	0.000000
O	6.039106	2.013040	0.000000
O	4.026066	2.013040	2.013040
O	6.039106	0.000000	2.013040
Sn	6.039106	2.013040	2.013040
Li	4.026066	0.000000	4.026066
O	6.039106	2.013040	4.026066
O	4.026066	2.013040	6.039106
O	6.039106	0.000000	6.039106
Sn	6.039106	2.013040	6.039106
Li	4.026066	4.026066	0.000000
O	6.039106	6.039106	0.000000
O	4.026066	6.039106	2.013040
O	6.039106	4.026066	2.013040
Sn	6.039106	6.039106	2.013040
Li	4.026066	4.026066	4.026066
O	6.039106	6.039106	4.026066
O	4.026066	6.039106	6.039106
O	6.039106	4.026066	6.039106
Sn	6.039106	6.039106	6.039106
