40

O	1.983080	1.983080	0.000000
O	0.000000	1.983080	1.983080
O	1.983080	0.000000	1.983080
Ta	1.983080	1.983080	1.983080
Zn	0.000000	0.000000	0.000000
O	1.983080	1.983080	3.966175
O	0.000000	1.983080	5.949255
O	1.983080	0.000000	5.949255
Ta	1.983080	1.983080	5.949255
Zn	0.000000	0.000000	3.966175
O	1.983080	5.949255	0.000000
O	0.000000	5.949255	1.983080
O	1.983080	3.966175	1.983080
Ta	1.983080	5.949255	1.983080
Zn	0.000000	3.966175	0.000000
O	1.983080	5.949255	3.966175
O	0.000000	5.949255	5.949255
O	1.983080	3.966175	5.949255
Ta	1.983080	5.949255	5.949255
Zn	0.000000	3.966175	3.966175
O	5.949255	1.983080	0.000000
O	3.966175	1.983080	1.983080
O	5.949255	0.000000	1.983080
Ta	5.949255	1.983080	1.983080
Zn	3.966175	0.000000	0.000000
O	5.949255	1.983080	3.966175
O	3.966175	1.983080	5.949255
O	5.949255	0.000000	5.949255
Ta	5.949255	1.983080	5.949255
Zn	3.966175	0.000000	3.966175
O	5.949255	5.949255	0.000000
O	3.966175	5.949255	1.983080
O	5.949255	3.966175	1.983080
Ta	5.949255	5.949255	1.983080
Zn	3.966175	3.966175	0.000000
O	5.949255	5.949255	3.966175
O	3.966175	5.949255	5.949255
O	5.949255	3.966175	5.949255
Ta	5.949255	5.949255	5.949255
Zn	3.966175	3.966175	3.966175
