40

As	0.000000	0.000000	0.000000
Mg	1.926814	1.926814	1.926814
O	0.000000	1.926814	1.926814
O	1.926814	0.000000	1.926814
O	1.926814	1.926814	0.000000
As	0.000000	0.000000	3.853629
Mg	1.926814	1.926814	5.780443
O	0.000000	1.926814	5.780443
O	1.926814	0.000000	5.780443
O	1.926814	1.926814	3.853629
As	0.000000	3.853629	0.000000
Mg	1.926814	5.780443	1.926814
O	0.000000	5.780443	1.926814
O	1.926814	3.853629	1.926814
O	1.926814	5.780443	0.000000
As	0.000000	3.853629	3.853629
Mg	1.926814	5.780443	5.780443
O	0.000000	5.780443	5.780443
O	1.926814	3.853629	5.780443
O	1.926814	5.780443	3.853629
As	3.853629	0.000000	0.000000
Mg	5.780443	1.926814	1.926814
O	3.853629	1.926814	1.926814
O	5.780443	0.000000	1.926814
O	5.780443	1.926814	0.000000
As	3.853629	0.000000	3.853629
Mg	5.780443	1.926814	5.780443
O	3.853629	1.926814	5.780443
O	5.780443	0.000000	5.780443
O	5.780443	1.926814	3.853629
As	3.853629	3.853629	0.000000
Mg	5.780443	5.780443	1.926814
O	3.853629	5.780443	1.926814
O	5.780443	3.853629	1.926814
O	5.780443	5.780443	0.000000
As	3.853629	3.853629	3.853629
Mg	5.780443	5.780443	5.780443
O	3.853629	5.780443	5.780443
O	5.780443	3.853629	5.780443
O	5.780443	5.780443	3.853629
