112

Cd	0.000000	0.000000	0.000000
Cd	2.329906	-2.330529	-2.330529
Lu	-1.164953	-1.165265	-3.495794
Lu	1.164953	1.165265	-3.495794
Lu	3.494859	1.165265	-1.165265
Lu	5.824765	-1.165265	-1.165265
O	3.621840	-1.037703	-1.037703
O	-1.037972	1.037703	-3.623365
O	1.037972	-1.037703	-3.623365
O	1.291934	1.292826	-1.292826
O	5.697773	1.037703	-1.037703
O	1.291934	3.368232	-3.368232
O	3.367868	1.292826	-3.368232
O	3.367868	3.368232	-1.292826
Cd	4.659810	4.661059	0.000000
Cd	6.989716	2.330530	-2.330529
Lu	3.494857	3.495795	-3.495794
Lu	5.824763	5.826324	-3.495794
Lu	8.154669	5.826324	-1.165265
Lu	10.484575	3.495795	-1.165265
O	8.281650	3.623356	-1.037703
O	3.621838	5.698763	-3.623365
O	5.697782	3.623356	-3.623365
O	5.951744	5.953885	-1.292826
O	10.357583	5.698763	-1.037703
O	5.951744	8.029292	-3.368232
O	8.027678	5.953885	-3.368232
O	8.027678	8.029292	-1.292826
Cd	-4.659810	0.000000	-4.661059
Cd	-2.329904	-2.330529	-6.991588
Lu	-5.824763	-1.165265	-8.156853
Lu	-3.494857	1.165265	-8.156853
Lu	-1.164951	1.165265	-5.826324
Lu	1.164955	-1.165265	-5.826324
O	-1.037970	-1.037703	-5.698763
O	-5.697782	1.037703	-8.284424
O	-3.621838	-1.037703	-8.284424
O	-3.367876	1.292826	-5.953885
O	1.037963	1.037703	-5.698763
O	-3.367876	3.368232	-8.029292
O	-1.291942	1.292826	-8.029292
O	-1.291942	3.368232	-5.953885
Cd	0.000000	4.661059	-4.661059
Cd	2.329906	2.330530	-6.991588
Lu	-1.164953	3.495795	-8.156853
Lu	1.164953	5.826324	-8.156853
Lu	3.494859	5.826324	-5.826324
Lu	5.824765	3.495795	-5.826324
O	3.621840	3.623356	-5.698763
O	-1.037972	5.698763	-8.284424
O	1.037972	3.623356	-8.284424
O	1.291934	5.953885	-5.953885
O	5.697773	5.698763	-5.698763
O	1.291934	8.029292	-8.029292
O	3.367868	5.953885	-8.029292
O	3.367868	8.029292	-5.953885
Cd	4.659810	-4.661059	0.000000
Cd	6.989716	-6.991588	-2.330529
Lu	3.494857	-5.826324	-3.495794
Lu	5.824763	-3.495795	-3.495794
Lu	8.154669	-3.495795	-1.165265
Lu	10.484575	-5.826324	-1.165265
O	8.281650	-5.698763	-1.037703
O	3.621838	-3.623356	-3.623365
O	5.697782	-5.698763	-3.623365
O	5.951744	-3.368233	-1.292826
O	10.357583	-3.623356	-1.037703
O	5.951744	-1.292827	-3.368232
O	8.027678	-3.368233	-3.368232
O	8.027678	-1.292827	-1.292826
Cd	9.319620	0.000000	0.000000
Cd	11.649526	-2.330529	-2.330529
Lu	8.154667	-1.165265	-3.495794
Lu	10.484573	1.165265	-3.495794
Lu	12.814479	1.165265	-1.165265
Lu	15.144385	-1.165265	-1.165265
O	12.941460	-1.037703	-1.037703
O	8.281648	1.037703	-3.623365
O	10.357592	-1.037703	-3.623365
O	10.611554	1.292826	-1.292826
O	15.017393	1.037703	-1.037703
O	10.611554	3.368232	-3.368232
O	12.687488	1.292826	-3.368232
O	12.687488	3.368232	-1.292826
Cd	0.000000	-4.661059	-4.661059
Cd	2.329906	-6.991588	-6.991588
Lu	-1.164953	-5.826324	-8.156853
Lu	1.164953	-3.495795	-8.156853
Lu	3.494859	-3.495795	-5.826324
Lu	5.824765	-5.826324	-5.826324
O	3.621840	-5.698763	-5.698763
O	-1.037972	-3.623356	-8.284424
O	1.037972	-5.698763	-8.284424
O	1.291934	-3.368233	-5.953885
O	5.697773	-3.623356	-5.698763
O	1.291934	-1.292827	-8.029292
O	3.367868	-3.368233	-8.029292
O	3.367868	-1.292827	-5.953885
Cd	4.659810	0.000000	-4.661059
Cd	6.989716	-2.330529	-6.991588
Lu	3.494857	-1.165265	-8.156853
Lu	5.824763	1.165265	-8.156853
Lu	8.154669	1.165265	-5.826324
Lu	10.484575	-1.165265	-5.826324
O	8.281650	-1.037703	-5.698763
O	3.621838	1.037703	-8.284424
O	5.697782	-1.037703	-8.284424
O	5.951744	1.292826	-5.953885
O	10.357583	1.037703	-5.698763
O	5.951744	3.368232	-8.029292
O	8.027678	1.292826	-8.029292
O	8.027678	3.368232	-5.953885
