40

Nb	0.000000	0.000000	0.000000
O	2.104023	2.104023	0.000000
O	2.104023	0.000000	2.104023
O	0.000000	2.104023	2.104023
Tm	2.104023	2.104023	2.104023
Nb	0.000000	0.000000	4.208046
O	2.104023	2.104023	4.208046
O	2.104023	0.000000	6.312069
O	0.000000	2.104023	6.312069
Tm	2.104023	2.104023	6.312069
Nb	0.000000	4.208046	0.000000
O	2.104023	6.312069	0.000000
O	2.104023	4.208046	2.104023
O	0.000000	6.312069	2.104023
Tm	2.104023	6.312069	2.104023
Nb	0.000000	4.208046	4.208046
O	2.104023	6.312069	4.208046
O	2.104023	4.208046	6.312069
O	0.000000	6.312069	6.312069
Tm	2.104023	6.312069	6.312069
Nb	4.208046	0.000000	0.000000
O	6.312069	2.104023	0.000000
O	6.312069	0.000000	2.104023
O	4.208046	2.104023	2.104023
Tm	6.312069	2.104023	2.104023
Nb	4.208046	0.000000	4.208046
O	6.312069	2.104023	4.208046
O	6.312069	0.000000	6.312069
O	4.208046	2.104023	6.312069
Tm	6.312069	2.104023	6.312069
Nb	4.208046	4.208046	0.000000
O	6.312069	6.312069	0.000000
O	6.312069	4.208046	2.104023
O	4.208046	6.312069	2.104023
Tm	6.312069	6.312069	2.104023
Nb	4.208046	4.208046	4.208046
O	6.312069	6.312069	4.208046
O	6.312069	4.208046	6.312069
O	4.208046	6.312069	6.312069
Tm	6.312069	6.312069	6.312069
