40

Cu	0.000000	0.000000	0.000000
O	0.000000	1.939462	1.939462
O	1.939462	0.000000	1.939462
O	1.939462	1.939462	0.000000
Re	1.939462	1.939462	1.939462
Cu	0.000000	0.000000	3.878925
O	0.000000	1.939462	5.818387
O	1.939462	0.000000	5.818387
O	1.939462	1.939462	3.878925
Re	1.939462	1.939462	5.818387
Cu	0.000000	3.878925	0.000000
O	0.000000	5.818387	1.939462
O	1.939462	3.878925	1.939462
O	1.939462	5.818387	0.000000
Re	1.939462	5.818387	1.939462
Cu	0.000000	3.878925	3.878925
O	0.000000	5.818387	5.818387
O	1.939462	3.878925	5.818387
O	1.939462	5.818387	3.878925
Re	1.939462	5.818387	5.818387
Cu	3.878925	0.000000	0.000000
O	3.878925	1.939462	1.939462
O	5.818387	0.000000	1.939462
O	5.818387	1.939462	0.000000
Re	5.818387	1.939462	1.939462
Cu	3.878925	0.000000	3.878925
O	3.878925	1.939462	5.818387
O	5.818387	0.000000	5.818387
O	5.818387	1.939462	3.878925
Re	5.818387	1.939462	5.818387
Cu	3.878925	3.878925	0.000000
O	3.878925	5.818387	1.939462
O	5.818387	3.878925	1.939462
O	5.818387	5.818387	0.000000
Re	5.818387	5.818387	1.939462
Cu	3.878925	3.878925	3.878925
O	3.878925	5.818387	5.818387
O	5.818387	3.878925	5.818387
O	5.818387	5.818387	3.878925
Re	5.818387	5.818387	5.818387
