40

Nb	2.035370	2.035370	2.035370
O	2.035370	2.035370	0.000000
O	0.000000	2.035370	2.035370
O	2.035370	0.000000	2.035370
Rb	0.000000	0.000000	0.000000
Nb	2.035370	2.035370	6.106100
O	2.035370	2.035370	4.070730
O	0.000000	2.035370	6.106100
O	2.035370	0.000000	6.106100
Rb	0.000000	0.000000	4.070730
Nb	2.035370	6.106100	2.035370
O	2.035370	6.106100	0.000000
O	0.000000	6.106100	2.035370
O	2.035370	4.070730	2.035370
Rb	0.000000	4.070730	0.000000
Nb	2.035370	6.106100	6.106100
O	2.035370	6.106100	4.070730
O	0.000000	6.106100	6.106100
O	2.035370	4.070730	6.106100
Rb	0.000000	4.070730	4.070730
Nb	6.106100	2.035370	2.035370
O	6.106100	2.035370	0.000000
O	4.070730	2.035370	2.035370
O	6.106100	0.000000	2.035370
Rb	4.070730	0.000000	0.000000
Nb	6.106100	2.035370	6.106100
O	6.106100	2.035370	4.070730
O	4.070730	2.035370	6.106100
O	6.106100	0.000000	6.106100
Rb	4.070730	0.000000	4.070730
Nb	6.106100	6.106100	2.035370
O	6.106100	6.106100	0.000000
O	4.070730	6.106100	2.035370
O	6.106100	4.070730	2.035370
Rb	4.070730	4.070730	0.000000
Nb	6.106100	6.106100	6.106100
O	6.106100	6.106100	4.070730
O	4.070730	6.106100	6.106100
O	6.106100	4.070730	6.106100
Rb	4.070730	4.070730	4.070730
