40

Ba	2.337429	2.337429	2.337429
Hf	0.000000	0.000000	0.000000
O	2.337429	2.337429	0.000000
O	2.337429	0.000000	2.337429
O	0.000000	2.337429	2.337429
Ba	2.337429	2.337429	7.012286
Hf	0.000000	0.000000	4.674857
O	2.337429	2.337429	4.674857
O	2.337429	0.000000	7.012286
O	0.000000	2.337429	7.012286
Ba	2.337429	7.012286	2.337429
Hf	0.000000	4.674857	0.000000
O	2.337429	7.012286	0.000000
O	2.337429	4.674857	2.337429
O	0.000000	7.012286	2.337429
Ba	2.337429	7.012286	7.012286
Hf	0.000000	4.674857	4.674857
O	2.337429	7.012286	4.674857
O	2.337429	4.674857	7.012286
O	0.000000	7.012286	7.012286
Ba	7.012286	2.337429	2.337429
Hf	4.674857	0.000000	0.000000
O	7.012286	2.337429	0.000000
O	7.012286	0.000000	2.337429
O	4.674857	2.337429	2.337429
Ba	7.012286	2.337429	7.012286
Hf	4.674857	0.000000	4.674857
O	7.012286	2.337429	4.674857
O	7.012286	0.000000	7.012286
O	4.674857	2.337429	7.012286
Ba	7.012286	7.012286	2.337429
Hf	4.674857	4.674857	0.000000
O	7.012286	7.012286	0.000000
O	7.012286	4.674857	2.337429
O	4.674857	7.012286	2.337429
Ba	7.012286	7.012286	7.012286
Hf	4.674857	4.674857	4.674857
O	7.012286	7.012286	4.674857
O	7.012286	4.674857	7.012286
O	4.674857	7.012286	7.012286
