40

Be	0.000000	0.000000	0.000000
K	2.273152	2.273152	2.273152
O	0.000000	2.273152	2.273152
O	2.273152	0.000000	2.273152
O	2.273152	2.273152	0.000000
Be	0.000000	0.000000	4.546304
K	2.273152	2.273152	6.819456
O	0.000000	2.273152	6.819456
O	2.273152	0.000000	6.819456
O	2.273152	2.273152	4.546304
Be	0.000000	4.546304	0.000000
K	2.273152	6.819456	2.273152
O	0.000000	6.819456	2.273152
O	2.273152	4.546304	2.273152
O	2.273152	6.819456	0.000000
Be	0.000000	4.546304	4.546304
K	2.273152	6.819456	6.819456
O	0.000000	6.819456	6.819456
O	2.273152	4.546304	6.819456
O	2.273152	6.819456	4.546304
Be	4.546304	0.000000	0.000000
K	6.819456	2.273152	2.273152
O	4.546304	2.273152	2.273152
O	6.819456	0.000000	2.273152
O	6.819456	2.273152	0.000000
Be	4.546304	0.000000	4.546304
K	6.819456	2.273152	6.819456
O	4.546304	2.273152	6.819456
O	6.819456	0.000000	6.819456
O	6.819456	2.273152	4.546304
Be	4.546304	4.546304	0.000000
K	6.819456	6.819456	2.273152
O	4.546304	6.819456	2.273152
O	6.819456	4.546304	2.273152
O	6.819456	6.819456	0.000000
Be	4.546304	4.546304	4.546304
K	6.819456	6.819456	6.819456
O	4.546304	6.819456	6.819456
O	6.819456	4.546304	6.819456
O	6.819456	6.819456	4.546304
