40

O	2.106539	2.106539	0.000000
O	0.000000	2.106539	2.106539
O	2.106539	0.000000	2.106539
Tm	2.106539	2.106539	2.106539
U	0.000000	0.000000	0.000000
O	2.106539	2.106539	4.213086
O	0.000000	2.106539	6.319625
O	2.106539	0.000000	6.319625
Tm	2.106539	2.106539	6.319625
U	0.000000	0.000000	4.213086
O	2.106539	6.319625	0.000000
O	0.000000	6.319625	2.106539
O	2.106539	4.213086	2.106539
Tm	2.106539	6.319625	2.106539
U	0.000000	4.213086	0.000000
O	2.106539	6.319625	4.213086
O	0.000000	6.319625	6.319625
O	2.106539	4.213086	6.319625
Tm	2.106539	6.319625	6.319625
U	0.000000	4.213086	4.213086
O	6.319625	2.106539	0.000000
O	4.213086	2.106539	2.106539
O	6.319625	0.000000	2.106539
Tm	6.319625	2.106539	2.106539
U	4.213086	0.000000	0.000000
O	6.319625	2.106539	4.213086
O	4.213086	2.106539	6.319625
O	6.319625	0.000000	6.319625
Tm	6.319625	2.106539	6.319625
U	4.213086	0.000000	4.213086
O	6.319625	6.319625	0.000000
O	4.213086	6.319625	2.106539
O	6.319625	4.213086	2.106539
Tm	6.319625	6.319625	2.106539
U	4.213086	4.213086	0.000000
O	6.319625	6.319625	4.213086
O	4.213086	6.319625	6.319625
O	6.319625	4.213086	6.319625
Tm	6.319625	6.319625	6.319625
U	4.213086	4.213086	4.213086
