112

Ge	0.000000	0.000000	0.000000
Ge	2.450319	-2.450582	-2.450582
O	-1.134410	1.134031	-3.767124
O	3.766239	-1.134031	-1.134031
O	1.134410	-1.134031	-3.767124
O	1.315919	1.316541	-1.316541
O	6.035048	1.134031	-1.134031
O	1.315920	3.584613	-3.584613
O	3.584729	3.584613	-1.316541
O	3.584729	1.316541	-3.584613
Pm	-1.225165	-1.225291	-3.675863
Pm	6.125803	-1.225291	-1.225291
Pm	1.225165	1.225291	-3.675863
Pm	3.675484	1.225291	-1.225291
Ge	4.900644	4.901156	0.000000
Ge	7.350963	2.450574	-2.450582
O	3.766234	6.035187	-3.767124
O	8.666882	3.767126	-1.134031
O	6.035053	3.767126	-3.767124
O	6.216563	6.217698	-1.316541
O	10.935692	6.035187	-1.134031
O	6.216563	8.485769	-3.584613
O	8.485373	8.485769	-1.316541
O	8.485373	6.217698	-3.584613
Pm	3.675479	3.675865	-3.675863
Pm	11.026447	3.675865	-1.225291
Pm	6.125808	6.126447	-3.675863
Pm	8.576127	6.126447	-1.225291
Ge	-4.900644	0.000000	-4.901156
Ge	-2.450324	-2.450582	-7.351739
O	-6.035053	1.134031	-8.668280
O	-1.134405	-1.134031	-6.035187
O	-3.766234	-1.134031	-8.668280
O	-3.584724	1.316541	-6.217698
O	1.134405	1.134031	-6.035187
O	-3.584724	3.584613	-8.485769
O	-1.315915	3.584613	-6.217698
O	-1.315915	1.316541	-8.485769
Pm	-6.125808	-1.225291	-8.577020
Pm	1.225159	-1.225291	-6.126448
Pm	-3.675479	1.225291	-8.577020
Pm	-1.225160	1.225291	-6.126448
Ge	0.000000	4.901156	-4.901156
Ge	2.450319	2.450574	-7.351739
O	-1.134410	6.035187	-8.668280
O	3.766239	3.767126	-6.035187
O	1.134410	3.767126	-8.668280
O	1.315919	6.217698	-6.217698
O	6.035048	6.035187	-6.035187
O	1.315920	8.485769	-8.485769
O	3.584729	8.485769	-6.217698
O	3.584729	6.217698	-8.485769
Pm	-1.225165	3.675865	-8.577020
Pm	6.125803	3.675865	-6.126448
Pm	1.225165	6.126447	-8.577020
Pm	3.675484	6.126447	-6.126448
Ge	4.900644	-4.901156	0.000000
Ge	7.350963	-7.351739	-2.450582
O	3.766234	-3.767126	-3.767124
O	8.666882	-6.035187	-1.134031
O	6.035053	-6.035187	-3.767124
O	6.216563	-3.584615	-1.316541
O	10.935692	-3.767126	-1.134031
O	6.216563	-1.316544	-3.584613
O	8.485373	-1.316544	-1.316541
O	8.485373	-3.584615	-3.584613
Pm	3.675479	-6.126448	-3.675863
Pm	11.026447	-6.126447	-1.225291
Pm	6.125808	-3.675865	-3.675863
Pm	8.576127	-3.675865	-1.225291
Ge	9.801287	0.000000	0.000000
Ge	12.251607	-2.450582	-2.450582
O	8.666877	1.134031	-3.767124
O	13.567526	-1.134031	-1.134031
O	10.935697	-1.134031	-3.767124
O	11.117207	1.316541	-1.316541
O	15.836335	1.134031	-1.134031
O	11.117207	3.584613	-3.584613
O	13.386016	3.584613	-1.316541
O	13.386016	1.316541	-3.584613
Pm	8.576123	-1.225291	-3.675863
Pm	15.927090	-1.225291	-1.225291
Pm	11.026452	1.225291	-3.675863
Pm	13.476771	1.225291	-1.225291
Ge	0.000000	-4.901156	-4.901156
Ge	2.450319	-7.351739	-7.351739
O	-1.134410	-3.767126	-8.668280
O	3.766239	-6.035187	-6.035187
O	1.134410	-6.035187	-8.668280
O	1.315919	-3.584615	-6.217698
O	6.035048	-3.767126	-6.035187
O	1.315920	-1.316544	-8.485769
O	3.584729	-1.316544	-6.217698
O	3.584729	-3.584615	-8.485769
Pm	-1.225165	-6.126448	-8.577020
Pm	6.125803	-6.126447	-6.126448
Pm	1.225165	-3.675865	-8.577020
Pm	3.675484	-3.675865	-6.126448
Ge	4.900644	0.000000	-4.901156
Ge	7.350963	-2.450582	-7.351739
O	3.766234	1.134031	-8.668280
O	8.666882	-1.134031	-6.035187
O	6.035053	-1.134031	-8.668280
O	6.216563	1.316541	-6.217698
O	10.935692	1.134031	-6.035187
O	6.216563	3.584613	-8.485769
O	8.485373	3.584613	-6.217698
O	8.485373	1.316541	-8.485769
Pm	3.675479	-1.225291	-8.577020
Pm	11.026447	-1.225291	-6.126448
Pm	6.125808	1.225291	-8.577020
Pm	8.576127	1.225291	-6.126448
