40

N	0.000000	0.000000	0.000000
O	0.000000	2.205481	2.205481
O	2.205481	0.000000	2.205481
O	2.205481	2.205481	0.000000
Y	2.205481	2.205481	2.205481
N	0.000000	0.000000	4.410963
O	0.000000	2.205481	6.616444
O	2.205481	0.000000	6.616444
O	2.205481	2.205481	4.410963
Y	2.205481	2.205481	6.616444
N	0.000000	4.410963	0.000000
O	0.000000	6.616444	2.205481
O	2.205481	4.410963	2.205481
O	2.205481	6.616444	0.000000
Y	2.205481	6.616444	2.205481
N	0.000000	4.410963	4.410963
O	0.000000	6.616444	6.616444
O	2.205481	4.410963	6.616444
O	2.205481	6.616444	4.410963
Y	2.205481	6.616444	6.616444
N	4.410963	0.000000	0.000000
O	4.410963	2.205481	2.205481
O	6.616444	0.000000	2.205481
O	6.616444	2.205481	0.000000
Y	6.616444	2.205481	2.205481
N	4.410963	0.000000	4.410963
O	4.410963	2.205481	6.616444
O	6.616444	0.000000	6.616444
O	6.616444	2.205481	4.410963
Y	6.616444	2.205481	6.616444
N	4.410963	4.410963	0.000000
O	4.410963	6.616444	2.205481
O	6.616444	4.410963	2.205481
O	6.616444	6.616444	0.000000
Y	6.616444	6.616444	2.205481
N	4.410963	4.410963	4.410963
O	4.410963	6.616444	6.616444
O	6.616444	4.410963	6.616444
O	6.616444	6.616444	4.410963
Y	6.616444	6.616444	6.616444
