40

N	1.816221	1.816221	1.816221
O	0.000000	1.816221	1.816221
O	1.816221	0.000000	1.816221
O	1.816221	1.816221	0.000000
Y	0.000000	0.000000	0.000000
N	1.816221	1.816221	5.448662
O	0.000000	1.816221	5.448662
O	1.816221	0.000000	5.448662
O	1.816221	1.816221	3.632441
Y	0.000000	0.000000	3.632441
N	1.816221	5.448662	1.816221
O	0.000000	5.448662	1.816221
O	1.816221	3.632441	1.816221
O	1.816221	5.448662	0.000000
Y	0.000000	3.632441	0.000000
N	1.816221	5.448662	5.448662
O	0.000000	5.448662	5.448662
O	1.816221	3.632441	5.448662
O	1.816221	5.448662	3.632441
Y	0.000000	3.632441	3.632441
N	5.448662	1.816221	1.816221
O	3.632441	1.816221	1.816221
O	5.448662	0.000000	1.816221
O	5.448662	1.816221	0.000000
Y	3.632441	0.000000	0.000000
N	5.448662	1.816221	5.448662
O	3.632441	1.816221	5.448662
O	5.448662	0.000000	5.448662
O	5.448662	1.816221	3.632441
Y	3.632441	0.000000	3.632441
N	5.448662	5.448662	1.816221
O	3.632441	5.448662	1.816221
O	5.448662	3.632441	1.816221
O	5.448662	5.448662	0.000000
Y	3.632441	3.632441	0.000000
N	5.448662	5.448662	5.448662
O	3.632441	5.448662	5.448662
O	5.448662	3.632441	5.448662
O	5.448662	5.448662	3.632441
Y	3.632441	3.632441	3.632441
