40

Cl	1.962088	1.962088	1.962088
O	0.000000	1.962088	1.962088
O	1.962088	0.000000	1.962088
O	1.962088	1.962088	0.000000
Se	0.000000	0.000000	0.000000
Cl	1.962088	1.962088	5.886265
O	0.000000	1.962088	5.886265
O	1.962088	0.000000	5.886265
O	1.962088	1.962088	3.924176
Se	0.000000	0.000000	3.924176
Cl	1.962088	5.886265	1.962088
O	0.000000	5.886265	1.962088
O	1.962088	3.924176	1.962088
O	1.962088	5.886265	0.000000
Se	0.000000	3.924176	0.000000
Cl	1.962088	5.886265	5.886265
O	0.000000	5.886265	5.886265
O	1.962088	3.924176	5.886265
O	1.962088	5.886265	3.924176
Se	0.000000	3.924176	3.924176
Cl	5.886265	1.962088	1.962088
O	3.924176	1.962088	1.962088
O	5.886265	0.000000	1.962088
O	5.886265	1.962088	0.000000
Se	3.924176	0.000000	0.000000
Cl	5.886265	1.962088	5.886265
O	3.924176	1.962088	5.886265
O	5.886265	0.000000	5.886265
O	5.886265	1.962088	3.924176
Se	3.924176	0.000000	3.924176
Cl	5.886265	5.886265	1.962088
O	3.924176	5.886265	1.962088
O	5.886265	3.924176	1.962088
O	5.886265	5.886265	0.000000
Se	3.924176	3.924176	0.000000
Cl	5.886265	5.886265	5.886265
O	3.924176	5.886265	5.886265
O	5.886265	3.924176	5.886265
O	5.886265	5.886265	3.924176
Se	3.924176	3.924176	3.924176
