40

Dy	2.148285	2.148285	2.148285
O	2.148285	2.148285	0.000000
O	2.148285	0.000000	2.148285
O	0.000000	2.148285	2.148285
Y	0.000000	0.000000	0.000000
Dy	2.148285	2.148285	6.444856
O	2.148285	2.148285	4.296571
O	2.148285	0.000000	6.444856
O	0.000000	2.148285	6.444856
Y	0.000000	0.000000	4.296571
Dy	2.148285	6.444856	2.148285
O	2.148285	6.444856	0.000000
O	2.148285	4.296571	2.148285
O	0.000000	6.444856	2.148285
Y	0.000000	4.296571	0.000000
Dy	2.148285	6.444856	6.444856
O	2.148285	6.444856	4.296571
O	2.148285	4.296571	6.444856
O	0.000000	6.444856	6.444856
Y	0.000000	4.296571	4.296571
Dy	6.444856	2.148285	2.148285
O	6.444856	2.148285	0.000000
O	6.444856	0.000000	2.148285
O	4.296571	2.148285	2.148285
Y	4.296571	0.000000	0.000000
Dy	6.444856	2.148285	6.444856
O	6.444856	2.148285	4.296571
O	6.444856	0.000000	6.444856
O	4.296571	2.148285	6.444856
Y	4.296571	0.000000	4.296571
Dy	6.444856	6.444856	2.148285
O	6.444856	6.444856	0.000000
O	6.444856	4.296571	2.148285
O	4.296571	6.444856	2.148285
Y	4.296571	4.296571	0.000000
Dy	6.444856	6.444856	6.444856
O	6.444856	6.444856	4.296571
O	6.444856	4.296571	6.444856
O	4.296571	6.444856	6.444856
Y	4.296571	4.296571	4.296571
