40

Dy	2.131366	2.131366	2.131366
O	2.131366	2.131366	0.000000
O	2.131366	0.000000	2.131366
O	0.000000	2.131366	2.131366
Y	0.000000	0.000000	0.000000
Dy	2.131366	2.131366	6.394090
O	2.131366	2.131366	4.262723
O	2.131366	0.000000	6.394090
O	0.000000	2.131366	6.394090
Y	0.000000	0.000000	4.262723
Dy	2.131366	6.394090	2.131366
O	2.131366	6.394090	0.000000
O	2.131366	4.262723	2.131366
O	0.000000	6.394090	2.131366
Y	0.000000	4.262723	0.000000
Dy	2.131366	6.394090	6.394090
O	2.131366	6.394090	4.262723
O	2.131366	4.262723	6.394090
O	0.000000	6.394090	6.394090
Y	0.000000	4.262723	4.262723
Dy	6.394090	2.131366	2.131366
O	6.394090	2.131366	0.000000
O	6.394090	0.000000	2.131366
O	4.262723	2.131366	2.131366
Y	4.262723	0.000000	0.000000
Dy	6.394090	2.131366	6.394090
O	6.394090	2.131366	4.262723
O	6.394090	0.000000	6.394090
O	4.262723	2.131366	6.394090
Y	4.262723	0.000000	4.262723
Dy	6.394090	6.394090	2.131366
O	6.394090	6.394090	0.000000
O	6.394090	4.262723	2.131366
O	4.262723	6.394090	2.131366
Y	4.262723	4.262723	0.000000
Dy	6.394090	6.394090	6.394090
O	6.394090	6.394090	4.262723
O	6.394090	4.262723	6.394090
O	4.262723	6.394090	6.394090
Y	4.262723	4.262723	4.262723
