112

Eu	0.000000	0.000000	0.000000
Eu	2.533135	-2.533934	-2.533934
O	3.916144	-1.149930	-1.149930
O	-1.150125	1.149930	-3.917938
O	1.150125	-1.149930	-3.917938
O	1.383009	1.384004	-1.384004
O	6.216395	1.149930	-1.149930
O	1.383009	3.683864	-3.683864
O	3.683260	3.683864	-1.384004
O	3.683260	1.384004	-3.683864
Pr	-1.266567	-1.266967	-3.800901
Pr	3.799702	1.266967	-1.266967
Pr	6.332837	-1.266967	-1.266967
Pr	1.266567	1.266967	-3.800901
Eu	5.066269	5.067867	0.000000
Eu	7.599404	2.533934	-2.533934
O	8.982414	3.917938	-1.149930
O	3.916144	6.217797	-3.917938
O	6.216395	3.917938	-3.917938
O	6.449279	6.451871	-1.384004
O	11.282664	6.217797	-1.149930
O	6.449279	8.751731	-3.683864
O	8.749529	8.751731	-1.384004
O	8.749529	6.451871	-3.683864
Pr	3.799702	3.800901	-3.800901
Pr	8.865971	6.334834	-1.266967
Pr	11.399106	3.800901	-1.266967
Pr	6.332837	6.334834	-3.800901
Eu	-5.066269	0.000000	-5.067867
Eu	-2.533135	-2.533934	-7.601801
O	-1.150125	-1.149930	-6.217797
O	-6.216395	1.149930	-8.985805
O	-3.916144	-1.149930	-8.985805
O	-3.683260	1.384004	-6.451871
O	1.150125	1.149930	-6.217797
O	-3.683260	3.683864	-8.751731
O	-1.383009	3.683864	-6.451871
O	-1.383009	1.384004	-8.751731
Pr	-6.332837	-1.266967	-8.868768
Pr	-1.266567	1.266967	-6.334834
Pr	1.266567	-1.266967	-6.334834
Pr	-3.799702	1.266967	-8.868768
Eu	0.000000	5.067867	-5.067867
Eu	2.533135	2.533934	-7.601801
O	3.916144	3.917938	-6.217797
O	-1.150125	6.217797	-8.985805
O	1.150125	3.917938	-8.985805
O	1.383009	6.451871	-6.451871
O	6.216395	6.217797	-6.217797
O	1.383009	8.751731	-8.751731
O	3.683260	8.751731	-6.451871
O	3.683260	6.451871	-8.751731
Pr	-1.266567	3.800901	-8.868768
Pr	3.799702	6.334834	-6.334834
Pr	6.332837	3.800901	-6.334834
Pr	1.266567	6.334834	-8.868768
Eu	5.066269	-5.067867	0.000000
Eu	7.599404	-7.601801	-2.533934
O	8.982414	-6.217797	-1.149930
O	3.916144	-3.917938	-3.917938
O	6.216395	-6.217797	-3.917938
O	6.449279	-3.683864	-1.384004
O	11.282664	-3.917938	-1.149930
O	6.449279	-1.384004	-3.683864
O	8.749529	-1.384004	-1.384004
O	8.749529	-3.683864	-3.683864
Pr	3.799702	-6.334834	-3.800901
Pr	8.865971	-3.800901	-1.266967
Pr	11.399106	-6.334834	-1.266967
Pr	6.332837	-3.800901	-3.800901
Eu	10.132539	0.000000	0.000000
Eu	12.665674	-2.533934	-2.533934
O	14.048683	-1.149930	-1.149930
O	8.982414	1.149930	-3.917938
O	11.282664	-1.149930	-3.917938
O	11.515548	1.384004	-1.384004
O	16.348933	1.149930	-1.149930
O	11.515548	3.683864	-3.683864
O	13.815799	3.683864	-1.384004
O	13.815799	1.384004	-3.683864
Pr	8.865971	-1.266967	-3.800901
Pr	13.932241	1.266967	-1.266967
Pr	16.465376	-1.266967	-1.266967
Pr	11.399106	1.266967	-3.800901
Eu	0.000000	-5.067867	-5.067867
Eu	2.533135	-7.601801	-7.601801
O	3.916144	-6.217797	-6.217797
O	-1.150125	-3.917938	-8.985805
O	1.150125	-6.217797	-8.985805
O	1.383009	-3.683864	-6.451871
O	6.216395	-3.917938	-6.217797
O	1.383009	-1.384004	-8.751731
O	3.683260	-1.384004	-6.451871
O	3.683260	-3.683864	-8.751731
Pr	-1.266567	-6.334834	-8.868768
Pr	3.799702	-3.800901	-6.334834
Pr	6.332837	-6.334834	-6.334834
Pr	1.266567	-3.800901	-8.868768
Eu	5.066269	0.000000	-5.067867
Eu	7.599404	-2.533934	-7.601801
O	8.982414	-1.149930	-6.217797
O	3.916144	1.149930	-8.985805
O	6.216395	-1.149930	-8.985805
O	6.449279	1.384004	-6.451871
O	11.282664	1.149930	-6.217797
O	6.449279	3.683864	-8.751731
O	8.749529	3.683864	-6.451871
O	8.749529	1.384004	-8.751731
Pr	3.799702	-1.266967	-8.868768
Pr	8.865971	1.266967	-6.334834
Pr	11.399106	-1.266967	-6.334834
Pr	6.332837	1.266967	-8.868768
