40

O	0.000000	1.969884	1.969884
O	1.969884	0.000000	1.969884
O	1.969884	1.969884	0.000000
W	1.969884	1.969884	1.969884
Zn	0.000000	0.000000	0.000000
O	0.000000	1.969884	5.909652
O	1.969884	0.000000	5.909652
O	1.969884	1.969884	3.939768
W	1.969884	1.969884	5.909652
Zn	0.000000	0.000000	3.939768
O	0.000000	5.909652	1.969884
O	1.969884	3.939768	1.969884
O	1.969884	5.909652	0.000000
W	1.969884	5.909652	1.969884
Zn	0.000000	3.939768	0.000000
O	0.000000	5.909652	5.909652
O	1.969884	3.939768	5.909652
O	1.969884	5.909652	3.939768
W	1.969884	5.909652	5.909652
Zn	0.000000	3.939768	3.939768
O	3.939768	1.969884	1.969884
O	5.909652	0.000000	1.969884
O	5.909652	1.969884	0.000000
W	5.909652	1.969884	1.969884
Zn	3.939768	0.000000	0.000000
O	3.939768	1.969884	5.909652
O	5.909652	0.000000	5.909652
O	5.909652	1.969884	3.939768
W	5.909652	1.969884	5.909652
Zn	3.939768	0.000000	3.939768
O	3.939768	5.909652	1.969884
O	5.909652	3.939768	1.969884
O	5.909652	5.909652	0.000000
W	5.909652	5.909652	1.969884
Zn	3.939768	3.939768	0.000000
O	3.939768	5.909652	5.909652
O	5.909652	3.939768	5.909652
O	5.909652	5.909652	3.939768
W	5.909652	5.909652	5.909652
Zn	3.939768	3.939768	3.939768
