40

Hg	2.067320	2.067320	2.067320
Mo_pv	0.000000	0.000000	0.000000
O	2.067320	2.067320	0.000000
O	0.000000	2.067320	2.067320
O	2.067320	0.000000	2.067320
Hg	2.067320	2.067320	6.201951
Mo_pv	0.000000	0.000000	4.134631
O	2.067320	2.067320	4.134631
O	0.000000	2.067320	6.201951
O	2.067320	0.000000	6.201951
Hg	2.067320	6.201951	2.067320
Mo_pv	0.000000	4.134631	0.000000
O	2.067320	6.201951	0.000000
O	0.000000	6.201951	2.067320
O	2.067320	4.134631	2.067320
Hg	2.067320	6.201951	6.201951
Mo_pv	0.000000	4.134631	4.134631
O	2.067320	6.201951	4.134631
O	0.000000	6.201951	6.201951
O	2.067320	4.134631	6.201951
Hg	6.201951	2.067320	2.067320
Mo_pv	4.134631	0.000000	0.000000
O	6.201951	2.067320	0.000000
O	4.134631	2.067320	2.067320
O	6.201951	0.000000	2.067320
Hg	6.201951	2.067320	6.201951
Mo_pv	4.134631	0.000000	4.134631
O	6.201951	2.067320	4.134631
O	4.134631	2.067320	6.201951
O	6.201951	0.000000	6.201951
Hg	6.201951	6.201951	2.067320
Mo_pv	4.134631	4.134631	0.000000
O	6.201951	6.201951	0.000000
O	4.134631	6.201951	2.067320
O	6.201951	4.134631	2.067320
Hg	6.201951	6.201951	6.201951
Mo_pv	4.134631	4.134631	4.134631
O	6.201951	6.201951	4.134631
O	4.134631	6.201951	6.201951
O	6.201951	4.134631	6.201951
