40

La	0.000000	0.000000	0.000000
Mo	2.018213	2.018213	2.018213
O	2.018213	2.018213	0.000000
O	2.018213	0.000000	2.018213
O	0.000000	2.018213	2.018213
La	0.000000	0.000000	4.036425
Mo	2.018213	2.018213	6.054638
O	2.018213	2.018213	4.036425
O	2.018213	0.000000	6.054638
O	0.000000	2.018213	6.054638
La	0.000000	4.036425	0.000000
Mo	2.018213	6.054638	2.018213
O	2.018213	6.054638	0.000000
O	2.018213	4.036425	2.018213
O	0.000000	6.054638	2.018213
La	0.000000	4.036425	4.036425
Mo	2.018213	6.054638	6.054638
O	2.018213	6.054638	4.036425
O	2.018213	4.036425	6.054638
O	0.000000	6.054638	6.054638
La	4.036425	0.000000	0.000000
Mo	6.054638	2.018213	2.018213
O	6.054638	2.018213	0.000000
O	6.054638	0.000000	2.018213
O	4.036425	2.018213	2.018213
La	4.036425	0.000000	4.036425
Mo	6.054638	2.018213	6.054638
O	6.054638	2.018213	4.036425
O	6.054638	0.000000	6.054638
O	4.036425	2.018213	6.054638
La	4.036425	4.036425	0.000000
Mo	6.054638	6.054638	2.018213
O	6.054638	6.054638	0.000000
O	6.054638	4.036425	2.018213
O	4.036425	6.054638	2.018213
La	4.036425	4.036425	4.036425
Mo	6.054638	6.054638	6.054638
O	6.054638	6.054638	4.036425
O	6.054638	4.036425	6.054638
O	4.036425	6.054638	6.054638
