176

O	3.898593	3.898593	0.815192
O	-1.299531	1.783870	3.898593
O	0.815192	3.898593	3.898593
O	1.299531	-0.815192	1.299531
O	3.414253	1.299531	1.299531
O	1.299531	1.299531	3.414253
O	-1.299531	-1.299531	3.898593
O	6.497655	1.299531	1.299531
O	3.898593	-1.299531	1.783870
O	1.783870	-1.299531	3.898593
O	3.898593	0.815192	3.898593
O	4.382932	-3.898593	1.299531
O	6.497655	-1.783870	1.299531
O	1.299531	-3.898593	4.382932
Pr	-2.599062	0.000000	2.599062
Pr	2.599062	-2.599062	0.000000
Pr	5.198124	0.000000	0.000000
Pr	0.000000	-2.599062	2.599062
Ru	0.000000	0.000000	0.000000
Ru	2.599062	2.599062	0.000000
Ru	0.000000	2.599062	2.599062
Ru	2.599062	0.000000	2.599062
O	9.096716	-1.299531	0.815192
O	3.898593	-3.414253	3.898593
O	6.013315	-1.299531	3.898593
O	6.497655	-6.013315	1.299531
O	8.612377	-3.898593	1.299531
O	6.497655	-3.898593	3.414253
O	3.898593	-6.497655	3.898593
O	11.695778	-3.898593	1.299531
O	9.096716	-6.497655	1.783870
O	6.981994	-6.497655	3.898593
O	9.096716	-4.382932	3.898593
O	9.581056	-9.096716	1.299531
O	11.695778	-6.981994	1.299531
O	6.497655	-9.096716	4.382932
Pr	2.599062	-5.198124	2.599062
Pr	7.797186	-7.797186	0.000000
Pr	10.396247	-5.198124	0.000000
Pr	5.198124	-7.797186	2.599062
Ru	5.198124	-5.198124	0.000000
Ru	7.797186	-2.599062	0.000000
Ru	5.198124	-2.599062	2.599062
Ru	7.797186	-5.198124	2.599062
O	-1.299531	3.898593	6.013315
O	-6.497655	1.783870	9.096716
O	-4.382932	3.898593	9.096716
O	-3.898593	-0.815192	6.497655
O	-1.783870	1.299531	6.497655
O	-3.898593	1.299531	8.612377
O	-6.497655	-1.299531	9.096716
O	1.299531	1.299531	6.497655
O	-1.299531	-1.299531	6.981994
O	-3.414253	-1.299531	9.096716
O	-1.299531	0.815192	9.096716
O	-0.815192	-3.898593	6.497655
O	1.299531	-1.783870	6.497655
O	-3.898593	-3.898593	9.581056
Pr	-7.797186	0.000000	7.797186
Pr	-2.599062	-2.599062	5.198124
Pr	0.000000	0.000000	5.198124
Pr	-5.198124	-2.599062	7.797186
Ru	-5.198124	0.000000	5.198124
Ru	-2.599062	2.599062	5.198124
Ru	-5.198124	2.599062	7.797186
Ru	-2.599062	0.000000	7.797186
O	3.898593	-1.299531	6.013315
O	-1.299531	-3.414253	9.096716
O	0.815192	-1.299531	9.096716
O	1.299531	-6.013315	6.497655
O	3.414253	-3.898593	6.497655
O	1.299531	-3.898593	8.612377
O	-1.299531	-6.497655	9.096716
O	6.497655	-3.898593	6.497655
O	3.898593	-6.497655	6.981994
O	1.783870	-6.497655	9.096716
O	3.898593	-4.382932	9.096716
O	4.382932	-9.096716	6.497655
O	6.497655	-6.981994	6.497655
O	1.299531	-9.096716	9.581056
Pr	-2.599062	-5.198124	7.797186
Pr	2.599062	-7.797186	5.198124
Pr	5.198124	-5.198124	5.198124
Pr	0.000000	-7.797186	7.797186
Ru	0.000000	-5.198124	5.198124
Ru	2.599062	-2.599062	5.198124
Ru	0.000000	-2.599062	7.797186
Ru	2.599062	-5.198124	7.797186
O	9.096716	9.096716	0.815192
O	3.898593	6.981994	3.898593
O	6.013315	9.096716	3.898593
O	6.497655	4.382932	1.299531
O	8.612377	6.497655	1.299531
O	6.497655	6.497655	3.414253
O	3.898593	3.898593	3.898593
O	11.695778	6.497655	1.299531
O	9.096716	3.898593	1.783870
O	6.981994	3.898593	3.898593
O	9.096716	6.013315	3.898593
O	9.581056	1.299531	1.299531
O	11.695778	3.414253	1.299531
O	6.497655	1.299531	4.382932
Pr	2.599062	5.198124	2.599062
Pr	7.797186	2.599062	0.000000
Pr	10.396247	5.198124	0.000000
Pr	5.198124	2.599062	2.599062
Ru	5.198124	5.198124	0.000000
Ru	7.797186	7.797186	0.000000
Ru	5.198124	7.797186	2.599062
Ru	7.797186	5.198124	2.599062
O	14.294840	3.898593	0.815192
O	9.096716	1.783870	3.898593
O	11.211439	3.898593	3.898593
O	11.695778	-0.815192	1.299531
O	13.810501	1.299531	1.299531
O	11.695778	1.299531	3.414253
O	9.096716	-1.299531	3.898593
O	16.893902	1.299531	1.299531
O	14.294840	-1.299531	1.783870
O	12.180118	-1.299531	3.898593
O	14.294840	0.815192	3.898593
O	14.779180	-3.898593	1.299531
O	16.893902	-1.783870	1.299531
O	11.695778	-3.898593	4.382932
Pr	7.797186	0.000000	2.599062
Pr	12.995309	-2.599062	0.000000
Pr	15.594371	0.000000	0.000000
Pr	10.396247	-2.599062	2.599062
Ru	10.396247	0.000000	0.000000
Ru	12.995309	2.599062	0.000000
Ru	10.396247	2.599062	2.599062
Ru	12.995309	0.000000	2.599062
O	3.898593	9.096716	6.013315
O	-1.299531	6.981994	9.096716
O	0.815192	9.096716	9.096716
O	1.299531	4.382932	6.497655
O	3.414253	6.497655	6.497655
O	1.299531	6.497655	8.612377
O	-1.299531	3.898593	9.096716
O	6.497655	6.497655	6.497655
O	3.898593	3.898593	6.981994
O	1.783870	3.898593	9.096716
O	3.898593	6.013315	9.096716
O	4.382932	1.299531	6.497655
O	6.497655	3.414253	6.497655
O	1.299531	1.299531	9.581056
Pr	-2.599062	5.198124	7.797186
Pr	2.599062	2.599062	5.198124
Pr	5.198124	5.198124	5.198124
Pr	0.000000	2.599062	7.797186
Ru	0.000000	5.198124	5.198124
Ru	2.599062	7.797186	5.198124
Ru	0.000000	7.797186	7.797186
Ru	2.599062	5.198124	7.797186
O	9.096716	3.898593	6.013315
O	3.898593	1.783870	9.096716
O	6.013315	3.898593	9.096716
O	6.497655	-0.815192	6.497655
O	8.612377	1.299531	6.497655
O	6.497655	1.299531	8.612377
O	3.898593	-1.299531	9.096716
O	11.695778	1.299531	6.497655
O	9.096716	-1.299531	6.981994
O	6.981994	-1.299531	9.096716
O	9.096716	0.815192	9.096716
O	9.581056	-3.898593	6.497655
O	11.695778	-1.783870	6.497655
O	6.497655	-3.898593	9.581056
Pr	2.599062	0.000000	7.797186
Pr	7.797186	-2.599062	5.198124
Pr	10.396247	0.000000	5.198124
Pr	5.198124	-2.599062	7.797186
Ru	5.198124	0.000000	5.198124
Ru	7.797186	2.599062	5.198124
Ru	5.198124	2.599062	7.797186
Ru	7.797186	0.000000	7.797186
