40

Cr	0.000000	0.000000	0.000000
F	0.000000	1.936516	1.936516
F	1.936516	0.000000	1.936516
F	1.936516	1.936516	0.000000
O	1.936516	1.936516	1.936516
Cr	0.000000	0.000000	3.873032
F	0.000000	1.936516	5.809548
F	1.936516	0.000000	5.809548
F	1.936516	1.936516	3.873032
O	1.936516	1.936516	5.809548
Cr	0.000000	3.873032	0.000000
F	0.000000	5.809548	1.936516
F	1.936516	3.873032	1.936516
F	1.936516	5.809548	0.000000
O	1.936516	5.809548	1.936516
Cr	0.000000	3.873032	3.873032
F	0.000000	5.809548	5.809548
F	1.936516	3.873032	5.809548
F	1.936516	5.809548	3.873032
O	1.936516	5.809548	5.809548
Cr	3.873032	0.000000	0.000000
F	3.873032	1.936516	1.936516
F	5.809548	0.000000	1.936516
F	5.809548	1.936516	0.000000
O	5.809548	1.936516	1.936516
Cr	3.873032	0.000000	3.873032
F	3.873032	1.936516	5.809548
F	5.809548	0.000000	5.809548
F	5.809548	1.936516	3.873032
O	5.809548	1.936516	5.809548
Cr	3.873032	3.873032	0.000000
F	3.873032	5.809548	1.936516
F	5.809548	3.873032	1.936516
F	5.809548	5.809548	0.000000
O	5.809548	5.809548	1.936516
Cr	3.873032	3.873032	3.873032
F	3.873032	5.809548	5.809548
F	5.809548	3.873032	5.809548
F	5.809548	5.809548	3.873032
O	5.809548	5.809548	5.809548
