112

Ce	0.000000	0.000000	0.000000
Ce	2.381426	-2.381819	-2.381819
Ge	-1.190713	-1.190910	-3.572729
Ge	3.572139	1.190910	-1.190910
Ge	5.953564	-1.190910	-1.190910
Ge	1.190713	1.190910	-3.572729
O	3.705336	-1.056893	-1.056893
O	-1.057515	1.056893	-3.706745
O	1.057515	-1.056893	-3.706745
O	1.323911	1.324926	-1.324926
O	5.820366	1.056893	-1.056893
O	1.323911	3.438713	-3.438713
O	3.438941	3.438713	-1.324926
O	3.438941	1.324926	-3.438713
Ce	4.762851	4.763639	0.000000
Ce	7.144277	2.381819	-2.381819
Ge	3.572139	3.572729	-3.572729
Ge	8.334990	5.954548	-1.190910
Ge	10.716416	3.572729	-1.190910
Ge	5.953564	5.954548	-3.572729
O	8.468188	3.706745	-1.056893
O	3.705336	5.820532	-3.706745
O	5.820366	3.706745	-3.706745
O	6.086762	6.088564	-1.324926
O	10.583218	5.820532	-1.056893
O	6.086762	8.202351	-3.438713
O	8.201792	8.202351	-1.324926
O	8.201792	6.088564	-3.438713
Ce	-4.762851	0.000000	-4.763639
Ce	-2.381426	-2.381819	-7.145458
Ge	-5.953564	-1.190910	-8.336367
Ge	-1.190713	1.190910	-5.954548
Ge	1.190713	-1.190910	-5.954548
Ge	-3.572139	1.190910	-8.336367
O	-1.057515	-1.056893	-5.820532
O	-5.820366	1.056893	-8.470384
O	-3.705336	-1.056893	-8.470384
O	-3.438941	1.324926	-6.088564
O	1.057515	1.056893	-5.820532
O	-3.438941	3.438713	-8.202351
O	-1.323911	3.438713	-6.088564
O	-1.323911	1.324926	-8.202351
Ce	0.000000	4.763639	-4.763639
Ce	2.381426	2.381819	-7.145458
Ge	-1.190713	3.572729	-8.336367
Ge	3.572139	5.954548	-5.954548
Ge	5.953564	3.572729	-5.954548
Ge	1.190713	5.954548	-8.336367
O	3.705336	3.706745	-5.820532
O	-1.057515	5.820532	-8.470384
O	1.057515	3.706745	-8.470384
O	1.323911	6.088564	-6.088564
O	5.820366	5.820532	-5.820532
O	1.323911	8.202351	-8.202351
O	3.438941	8.202351	-6.088564
O	3.438941	6.088564	-8.202351
Ce	4.762851	-4.763639	0.000000
Ce	7.144277	-7.145458	-2.381819
Ge	3.572139	-5.954548	-3.572729
Ge	8.334990	-3.572729	-1.190910
Ge	10.716416	-5.954548	-1.190910
Ge	5.953564	-3.572729	-3.572729
O	8.468188	-5.820532	-1.056893
O	3.705336	-3.706745	-3.706745
O	5.820366	-5.820532	-3.706745
O	6.086762	-3.438713	-1.324926
O	10.583218	-3.706745	-1.056893
O	6.086762	-1.324926	-3.438713
O	8.201792	-1.324926	-1.324926
O	8.201792	-3.438713	-3.438713
Ce	9.525703	0.000000	0.000000
Ce	11.907129	-2.381819	-2.381819
Ge	8.334990	-1.190910	-3.572729
Ge	13.097841	1.190910	-1.190910
Ge	15.479267	-1.190910	-1.190910
Ge	10.716416	1.190910	-3.572729
O	13.231039	-1.056893	-1.056893
O	8.468188	1.056893	-3.706745
O	10.583218	-1.056893	-3.706745
O	10.849614	1.324926	-1.324926
O	15.346069	1.056893	-1.056893
O	10.849614	3.438713	-3.438713
O	12.964644	3.438713	-1.324926
O	12.964644	1.324926	-3.438713
Ce	0.000000	-4.763639	-4.763639
Ce	2.381426	-7.145458	-7.145458
Ge	-1.190713	-5.954548	-8.336367
Ge	3.572139	-3.572729	-5.954548
Ge	5.953564	-5.954548	-5.954548
Ge	1.190713	-3.572729	-8.336367
O	3.705336	-5.820532	-5.820532
O	-1.057515	-3.706745	-8.470384
O	1.057515	-5.820532	-8.470384
O	1.323911	-3.438713	-6.088564
O	5.820366	-3.706745	-5.820532
O	1.323911	-1.324926	-8.202351
O	3.438941	-1.324926	-6.088564
O	3.438941	-3.438713	-8.202351
Ce	4.762851	0.000000	-4.763639
Ce	7.144277	-2.381819	-7.145458
Ge	3.572139	-1.190910	-8.336367
Ge	8.334990	1.190910	-5.954548
Ge	10.716416	-1.190910	-5.954548
Ge	5.953564	1.190910	-8.336367
O	8.468188	-1.056893	-5.820532
O	3.705336	1.056893	-8.470384
O	5.820366	-1.056893	-8.470384
O	6.086762	1.324926	-6.088564
O	10.583218	1.056893	-5.820532
O	6.086762	3.438713	-8.202351
O	8.201792	3.438713	-6.088564
O	8.201792	1.324926	-8.202351
