112

Ce	0.000000	0.000000	0.000000
Ce	2.366940	-2.367568	-2.367568
Ge	-1.183465	-1.183784	-3.551352
Ge	5.917335	-1.183784	-1.183784
Ge	1.183465	1.183784	-3.551352
Ge	3.550405	1.183784	-1.183784
O	-1.048109	1.047664	-3.687472
O	3.685772	-1.047664	-1.047664
O	1.048109	-1.047664	-3.687472
O	1.318831	1.319904	-1.319904
O	5.781979	1.047664	-1.047664
O	1.318831	3.415232	-3.415232
O	3.415039	3.415232	-1.319904
O	3.415039	1.319904	-3.415232
Ce	4.733872	4.735134	0.000000
Ce	7.100812	2.367567	-2.367568
Ge	3.550407	3.551350	-3.551352
Ge	10.651207	3.551350	-1.183784
Ge	5.917337	5.918918	-3.551352
Ge	8.284277	5.918918	-1.183784
O	3.685763	5.782798	-3.687472
O	8.419643	3.687471	-1.047664
O	5.781980	3.687471	-3.687472
O	6.052703	6.055039	-1.319904
O	10.515851	5.782798	-1.047664
O	6.052703	8.150366	-3.415232
O	8.148911	8.150366	-1.319904
O	8.148911	6.055039	-3.415232
Ce	-4.733872	0.000000	-4.735134
Ce	-2.366932	-2.367568	-7.102702
Ge	-5.917337	-1.183784	-8.286486
Ge	1.183464	-1.183784	-5.918918
Ge	-3.550407	1.183784	-8.286486
Ge	-1.183467	1.183784	-5.918918
O	-5.781980	1.047664	-8.422606
O	-1.048100	-1.047664	-5.782798
O	-3.685763	-1.047664	-8.422606
O	-3.415040	1.319904	-6.055039
O	1.048107	1.047664	-5.782798
O	-3.415040	3.415232	-8.150366
O	-1.318833	3.415232	-6.055039
O	-1.318833	1.319904	-8.150366
Ce	0.000000	4.735134	-4.735134
Ce	2.366940	2.367567	-7.102702
Ge	-1.183465	3.551350	-8.286486
Ge	5.917335	3.551350	-5.918918
Ge	1.183465	5.918918	-8.286486
Ge	3.550405	5.918918	-5.918918
O	-1.048109	5.782798	-8.422606
O	3.685772	3.687471	-5.782798
O	1.048109	3.687471	-8.422606
O	1.318831	6.055039	-6.055039
O	5.781979	5.782798	-5.782798
O	1.318831	8.150366	-8.150366
O	3.415039	8.150366	-6.055039
O	3.415039	6.055039	-8.150366
Ce	4.733872	-4.735134	0.000000
Ce	7.100812	-7.102702	-2.367568
Ge	3.550407	-5.918918	-3.551352
Ge	10.651207	-5.918918	-1.183784
Ge	5.917337	-3.551350	-3.551352
Ge	8.284277	-3.551350	-1.183784
O	3.685763	-3.687471	-3.687472
O	8.419643	-5.782798	-1.047664
O	5.781980	-5.782798	-3.687472
O	6.052703	-3.415230	-1.319904
O	10.515851	-3.687471	-1.047664
O	6.052703	-1.319903	-3.415232
O	8.148911	-1.319903	-1.319904
O	8.148911	-3.415230	-3.415232
Ce	9.467744	0.000000	0.000000
Ce	11.834684	-2.367568	-2.367568
Ge	8.284278	-1.183784	-3.551352
Ge	15.385079	-1.183784	-1.183784
Ge	10.651209	1.183784	-3.551352
Ge	13.018149	1.183784	-1.183784
O	8.419635	1.047664	-3.687472
O	13.153515	-1.047664	-1.047664
O	10.515852	-1.047664	-3.687472
O	10.786575	1.319904	-1.319904
O	15.249723	1.047664	-1.047664
O	10.786575	3.415232	-3.415232
O	12.882782	3.415232	-1.319904
O	12.882782	1.319904	-3.415232
Ce	0.000000	-4.735134	-4.735134
Ce	2.366940	-7.102702	-7.102702
Ge	-1.183465	-5.918918	-8.286486
Ge	5.917335	-5.918918	-5.918918
Ge	1.183465	-3.551350	-8.286486
Ge	3.550405	-3.551350	-5.918918
O	-1.048109	-3.687471	-8.422606
O	3.685772	-5.782798	-5.782798
O	1.048109	-5.782798	-8.422606
O	1.318831	-3.415230	-6.055039
O	5.781979	-3.687471	-5.782798
O	1.318831	-1.319903	-8.150366
O	3.415039	-1.319903	-6.055039
O	3.415039	-3.415230	-8.150366
Ce	4.733872	0.000000	-4.735134
Ce	7.100812	-2.367568	-7.102702
Ge	3.550407	-1.183784	-8.286486
Ge	10.651207	-1.183784	-5.918918
Ge	5.917337	1.183784	-8.286486
Ge	8.284277	1.183784	-5.918918
O	3.685763	1.047664	-8.422606
O	8.419643	-1.047664	-5.782798
O	5.781980	-1.047664	-8.422606
O	6.052703	1.319904	-6.055039
O	10.515851	1.047664	-5.782798
O	6.052703	3.415232	-8.150366
O	8.148911	3.415232	-6.055039
O	8.148911	1.319904	-8.150366
