40

O	1.980820	1.980820	0.000000
O	0.000000	1.980820	1.980820
O	1.980820	0.000000	1.980820
Os	1.980820	1.980820	1.980820
Sr	0.000000	0.000000	0.000000
O	1.980820	1.980820	3.961647
O	0.000000	1.980820	5.942467
O	1.980820	0.000000	5.942467
Os	1.980820	1.980820	5.942467
Sr	0.000000	0.000000	3.961647
O	1.980820	5.942467	0.000000
O	0.000000	5.942467	1.980820
O	1.980820	3.961647	1.980820
Os	1.980820	5.942467	1.980820
Sr	0.000000	3.961647	0.000000
O	1.980820	5.942467	3.961647
O	0.000000	5.942467	5.942467
O	1.980820	3.961647	5.942467
Os	1.980820	5.942467	5.942467
Sr	0.000000	3.961647	3.961647
O	5.942467	1.980820	0.000000
O	3.961647	1.980820	1.980820
O	5.942467	0.000000	1.980820
Os	5.942467	1.980820	1.980820
Sr	3.961647	0.000000	0.000000
O	5.942467	1.980820	3.961647
O	3.961647	1.980820	5.942467
O	5.942467	0.000000	5.942467
Os	5.942467	1.980820	5.942467
Sr	3.961647	0.000000	3.961647
O	5.942467	5.942467	0.000000
O	3.961647	5.942467	1.980820
O	5.942467	3.961647	1.980820
Os	5.942467	5.942467	1.980820
Sr	3.961647	3.961647	0.000000
O	5.942467	5.942467	3.961647
O	3.961647	5.942467	5.942467
O	5.942467	3.961647	5.942467
Os	5.942467	5.942467	5.942467
Sr	3.961647	3.961647	3.961647
