320

O	0.899469	1.557926	5.769351
O	3.054857	2.175316	2.160110
O	0.356450	3.733242	2.160110
O	-2.419875	4.191347	6.086427
O	4.839750	0.000000	6.086427
O	7.351588	0.000000	2.534151
O	-1.520406	5.749273	-1.075089
O	5.739219	1.557926	-1.075089
O	-3.675794	6.366662	2.534151
O	4.931713	4.191347	-4.310289
O	1.163956	6.366662	-4.310289
O	2.155388	3.733242	-0.383973
O	-1.435911	5.610853	3.943603
O	2.337669	4.048962	4.486717
O	1.001834	6.362697	0.708403
O	2.671671	0.000000	3.802075
O	5.009341	4.048962	0.708403
O	4.475188	0.000000	1.251517
O	5.577097	1.561891	3.943603
O	3.239428	5.610853	-2.668324
O	3.139352	2.313735	-2.526796
O	-2.237594	3.875626	1.251517
O	-1.335836	2.313735	3.802075
O	0.434077	3.875626	-2.526796
Sb	0.000000	0.000000	4.813593
Sb	-2.269150	3.930282	-1.604531
Sb	4.538299	0.000000	-1.604531
Sb	2.306114	3.994306	1.630669
Sb	6.577769	0.000000	4.651185
Sb	2.572758	0.000000	1.819215
Sb	-1.286379	2.228074	1.819215
Sb	-3.288884	5.696515	4.651185
Sb	3.288884	5.696515	-4.651185
Sb	1.286379	2.228074	-1.819215
Pr	1.143816	5.943441	-1.617600
Pr	-1.143816	5.943441	1.617600
Pr	5.719079	1.981147	1.617600
Pr	0.000000	3.962294	4.852800
Pr	4.575263	3.962294	-1.617600
Pr	3.431448	1.981147	4.852800
O	0.899469	1.557926	15.474950
O	3.054857	2.175316	11.865710
O	0.356450	3.733242	11.865710
O	-2.419875	4.191347	15.792026
O	4.839750	0.000000	15.792026
O	7.351588	0.000000	12.239751
O	-1.520406	5.749273	8.630510
O	5.739219	1.557926	8.630510
O	-3.675794	6.366662	12.239751
O	4.931713	4.191347	5.395310
O	1.163956	6.366662	5.395310
O	2.155388	3.733242	9.321627
O	-1.435911	5.610853	13.649202
O	2.337669	4.048962	14.192316
O	1.001834	6.362697	10.414003
O	2.671671	0.000000	13.507674
O	5.009341	4.048962	10.414003
O	4.475188	0.000000	10.957117
O	5.577097	1.561891	13.649202
O	3.239428	5.610853	7.037275
O	3.139352	2.313735	7.178803
O	-2.237594	3.875626	10.957117
O	-1.335836	2.313735	13.507674
O	0.434077	3.875626	7.178803
Sb	0.000000	0.000000	14.519192
Sb	-2.269150	3.930282	8.101068
Sb	4.538299	0.000000	8.101068
Sb	2.306114	3.994306	11.336268
Sb	6.577769	0.000000	14.356784
Sb	2.572758	0.000000	11.524814
Sb	-1.286379	2.228074	11.524814
Sb	-3.288884	5.696515	14.356784
Sb	3.288884	5.696515	5.054414
Sb	1.286379	2.228074	7.886385
Pr	1.143816	5.943441	8.087999
Pr	-1.143816	5.943441	11.323199
Pr	5.719079	1.981147	11.323199
Pr	0.000000	3.962294	14.558399
Pr	4.575263	3.962294	8.087999
Pr	3.431448	1.981147	14.558399
O	-3.675794	9.482515	2.534151
O	-1.520406	10.099904	-1.075089
O	-4.218813	11.657831	-1.075089
O	-6.995138	12.115935	2.851227
O	0.264487	7.924589	2.851227
O	2.776325	7.924589	-0.701048
O	-6.095669	13.673862	-4.310289
O	1.163956	9.482515	-4.310289
O	-8.251058	14.291251	-0.701048
O	0.356450	12.115935	-7.545489
O	-3.411307	14.291251	-7.545489
O	-2.419875	11.657831	-3.619172
O	-6.011175	13.535442	0.708403
O	-2.237594	11.973551	1.251517
O	-3.573430	14.287286	-2.526796
O	-1.903592	7.924589	0.566875
O	0.434077	11.973551	-2.526796
O	-0.100076	7.924589	-1.983682
O	1.001834	9.486480	0.708403
O	-1.335836	13.535442	-5.903524
O	-1.435911	10.238324	-5.761996
O	-6.812857	11.800215	-1.983682
O	-5.911099	10.238324	0.566875
O	-4.141186	11.800215	-5.761996
Sb	-4.575263	7.924589	1.578393
Sb	-6.844413	11.854871	-4.839731
Sb	-0.036964	7.924589	-4.839731
Sb	-2.269150	11.918895	-1.604531
Sb	2.002505	7.924589	1.415985
Sb	-2.002505	7.924589	-1.415985
Sb	-5.861642	10.152662	-1.415985
Sb	-7.864148	13.621103	1.415985
Sb	-1.286379	13.621103	-7.886385
Sb	-3.288884	10.152662	-5.054414
Pr	-3.431448	13.868030	-4.852800
Pr	-5.719079	13.868030	-1.617600
Pr	1.143816	9.905736	-1.617600
Pr	-4.575263	11.886883	1.617600
Pr	-0.000000	11.886883	-4.852800
Pr	-1.143816	9.905736	1.617600
O	-3.675794	9.482515	12.239751
O	-1.520406	10.099904	8.630510
O	-4.218813	11.657831	8.630510
O	-6.995138	12.115935	12.556826
O	0.264487	7.924589	12.556826
O	2.776325	7.924589	9.004551
O	-6.095669	13.673862	5.395310
O	1.163956	9.482515	5.395310
O	-8.251058	14.291251	9.004551
O	0.356450	12.115935	2.160110
O	-3.411307	14.291251	2.160110
O	-2.419875	11.657831	6.086427
O	-6.011175	13.535442	10.414003
O	-2.237594	11.973551	10.957117
O	-3.573430	14.287286	7.178803
O	-1.903592	7.924589	10.272475
O	0.434077	11.973551	7.178803
O	-0.100076	7.924589	7.721917
O	1.001834	9.486480	10.414003
O	-1.335836	13.535442	3.802075
O	-1.435911	10.238324	3.943603
O	-6.812857	11.800215	7.721917
O	-5.911099	10.238324	10.272475
O	-4.141186	11.800215	3.943603
Sb	-4.575263	7.924589	11.283993
Sb	-6.844413	11.854871	4.865868
Sb	-0.036964	7.924589	4.865868
Sb	-2.269150	11.918895	8.101068
Sb	2.002505	7.924589	11.121584
Sb	-2.002505	7.924589	8.289614
Sb	-5.861642	10.152662	8.289614
Sb	-7.864148	13.621103	11.121584
Sb	-1.286379	13.621103	1.819215
Sb	-3.288884	10.152662	4.651185
Pr	-3.431448	13.868030	4.852800
Pr	-5.719079	13.868030	8.087999
Pr	1.143816	9.905736	8.087999
Pr	-4.575263	11.886883	11.323199
Pr	-0.000000	11.886883	4.852800
Pr	-1.143816	9.905736	11.323199
O	10.049996	1.557926	2.534151
O	12.205384	2.175316	-1.075089
O	9.506977	3.733242	-1.075089
O	6.730652	4.191347	2.851227
O	13.990277	0.000000	2.851227
O	16.502115	0.000000	-0.701048
O	7.630121	5.749273	-4.310289
O	14.889746	1.557926	-4.310289
O	5.474733	6.366662	-0.701048
O	14.082240	4.191347	-7.545489
O	10.314483	6.366662	-7.545489
O	11.305915	3.733242	-3.619172
O	7.714616	5.610853	0.708403
O	11.488196	4.048962	1.251517
O	10.152361	6.362697	-2.526796
O	11.822198	0.000000	0.566875
O	14.159867	4.048962	-2.526796
O	13.625715	0.000000	-1.983682
O	14.727624	1.561891	0.708403
O	12.389954	5.610853	-5.903524
O	12.289879	2.313735	-5.761996
O	6.912933	3.875626	-1.983682
O	7.814691	2.313735	0.566875
O	9.584604	3.875626	-5.761996
Sb	9.150527	0.000000	1.578393
Sb	6.881377	3.930282	-4.839731
Sb	13.688826	0.000000	-4.839731
Sb	11.456640	3.994306	-1.604531
Sb	15.728295	0.000000	1.415985
Sb	11.723285	0.000000	-1.415985
Sb	7.864148	2.228074	-1.415985
Sb	5.861642	5.696515	1.415985
Sb	12.439411	5.696515	-7.886385
Sb	10.436906	2.228074	-5.054414
Pr	10.294343	5.943441	-4.852800
Pr	8.006711	5.943441	-1.617600
Pr	14.869606	1.981147	-1.617600
Pr	9.150527	3.962294	1.617600
Pr	13.725790	3.962294	-4.852800
Pr	12.581974	1.981147	1.617600
O	10.049996	1.557926	12.239751
O	12.205384	2.175316	8.630510
O	9.506977	3.733242	8.630510
O	6.730652	4.191347	12.556826
O	13.990277	0.000000	12.556826
O	16.502115	0.000000	9.004551
O	7.630121	5.749273	5.395310
O	14.889746	1.557926	5.395310
O	5.474733	6.366662	9.004551
O	14.082240	4.191347	2.160110
O	10.314483	6.366662	2.160110
O	11.305915	3.733242	6.086427
O	7.714616	5.610853	10.414003
O	11.488196	4.048962	10.957117
O	10.152361	6.362697	7.178803
O	11.822198	0.000000	10.272475
O	14.159867	4.048962	7.178803
O	13.625715	0.000000	7.721917
O	14.727624	1.561891	10.414003
O	12.389954	5.610853	3.802075
O	12.289879	2.313735	3.943603
O	6.912933	3.875626	7.721917
O	7.814691	2.313735	10.272475
O	9.584604	3.875626	3.943603
Sb	9.150527	0.000000	11.283993
Sb	6.881377	3.930282	4.865868
Sb	13.688826	0.000000	4.865868
Sb	11.456640	3.994306	8.101068
Sb	15.728295	0.000000	11.121584
Sb	11.723285	0.000000	8.289614
Sb	7.864148	2.228074	8.289614
Sb	5.861642	5.696515	11.121584
Sb	12.439411	5.696515	1.819215
Sb	10.436906	2.228074	4.651185
Pr	10.294343	5.943441	4.852800
Pr	8.006711	5.943441	8.087999
Pr	14.869606	1.981147	8.087999
Pr	9.150527	3.962294	11.323199
Pr	13.725790	3.962294	4.852800
Pr	12.581974	1.981147	11.323199
O	5.474733	9.482515	-0.701048
O	7.630121	10.099904	-4.310289
O	4.931713	11.657831	-4.310289
O	2.155388	12.115935	-0.383973
O	9.415014	7.924589	-0.383973
O	11.926852	7.924589	-3.936248
O	3.054857	13.673862	-7.545489
O	10.314483	9.482515	-7.545489
O	0.899469	14.291251	-3.936248
O	9.506977	12.115935	-10.780689
O	5.739219	14.291251	-10.780689
O	6.730652	11.657831	-6.854372
O	3.139352	13.535442	-2.526796
O	6.912933	11.973551	-1.983682
O	5.577097	14.287286	-5.761996
O	7.246935	7.924589	-2.668324
O	9.584604	11.973551	-5.761996
O	9.050451	7.924589	-5.218882
O	10.152361	9.486480	-2.526796
O	7.814691	13.535442	-9.138724
O	7.714616	10.238324	-8.997196
O	2.337669	11.800215	-5.218882
O	3.239428	10.238324	-2.668324
O	5.009341	11.800215	-8.997196
Sb	4.575263	7.924589	-1.656806
Sb	2.306114	11.854871	-8.074931
Sb	9.113563	7.924589	-8.074931
Sb	6.881377	11.918895	-4.839731
Sb	11.153032	7.924589	-1.819215
Sb	7.148021	7.924589	-4.651185
Sb	3.288884	10.152662	-4.651185
Sb	1.286379	13.621103	-1.819215
Sb	7.864148	13.621103	-11.121584
Sb	5.861642	10.152662	-8.289614
Pr	5.719079	13.868030	-8.087999
Pr	3.431448	13.868030	-4.852800
Pr	10.294343	9.905736	-4.852800
Pr	4.575263	11.886883	-1.617600
Pr	9.150527	11.886883	-8.087999
Pr	8.006711	9.905736	-1.617600
O	5.474733	9.482515	9.004551
O	7.630121	10.099904	5.395310
O	4.931713	11.657831	5.395310
O	2.155388	12.115935	9.321627
O	9.415014	7.924589	9.321627
O	11.926852	7.924589	5.769351
O	3.054857	13.673862	2.160110
O	10.314483	9.482515	2.160110
O	0.899469	14.291251	5.769351
O	9.506977	12.115935	-1.075089
O	5.739219	14.291251	-1.075089
O	6.730652	11.657831	2.851227
O	3.139352	13.535442	7.178803
O	6.912933	11.973551	7.721917
O	5.577097	14.287286	3.943603
O	7.246935	7.924589	7.037275
O	9.584604	11.973551	3.943603
O	9.050451	7.924589	4.486717
O	10.152361	9.486480	7.178803
O	7.814691	13.535442	0.566875
O	7.714616	10.238324	0.708403
O	2.337669	11.800215	4.486717
O	3.239428	10.238324	7.037275
O	5.009341	11.800215	0.708403
Sb	4.575263	7.924589	8.048793
Sb	2.306114	11.854871	1.630669
Sb	9.113563	7.924589	1.630669
Sb	6.881377	11.918895	4.865868
Sb	11.153032	7.924589	7.886385
Sb	7.148021	7.924589	5.054414
Sb	3.288884	10.152662	5.054414
Sb	1.286379	13.621103	7.886385
Sb	7.864148	13.621103	-1.415985
Sb	5.861642	10.152662	1.415985
Pr	5.719079	13.868030	1.617600
Pr	3.431448	13.868030	4.852800
Pr	10.294343	9.905736	4.852800
Pr	4.575263	11.886883	8.087999
Pr	9.150527	11.886883	1.617600
Pr	8.006711	9.905736	8.087999
