40

O	0.000000	2.016586	2.016586
O	2.016586	0.000000	2.016586
O	2.016586	2.016586	0.000000
Tc	2.016586	2.016586	2.016586
Tl	0.000000	0.000000	0.000000
O	0.000000	2.016586	6.049757
O	2.016586	0.000000	6.049757
O	2.016586	2.016586	4.033171
Tc	2.016586	2.016586	6.049757
Tl	0.000000	0.000000	4.033171
O	0.000000	6.049757	2.016586
O	2.016586	4.033171	2.016586
O	2.016586	6.049757	0.000000
Tc	2.016586	6.049757	2.016586
Tl	0.000000	4.033171	0.000000
O	0.000000	6.049757	6.049757
O	2.016586	4.033171	6.049757
O	2.016586	6.049757	4.033171
Tc	2.016586	6.049757	6.049757
Tl	0.000000	4.033171	4.033171
O	4.033171	2.016586	2.016586
O	6.049757	0.000000	2.016586
O	6.049757	2.016586	0.000000
Tc	6.049757	2.016586	2.016586
Tl	4.033171	0.000000	0.000000
O	4.033171	2.016586	6.049757
O	6.049757	0.000000	6.049757
O	6.049757	2.016586	4.033171
Tc	6.049757	2.016586	6.049757
Tl	4.033171	0.000000	4.033171
O	4.033171	6.049757	2.016586
O	6.049757	4.033171	2.016586
O	6.049757	6.049757	0.000000
Tc	6.049757	6.049757	2.016586
Tl	4.033171	4.033171	0.000000
O	4.033171	6.049757	6.049757
O	6.049757	4.033171	6.049757
O	6.049757	6.049757	4.033171
Tc	6.049757	6.049757	6.049757
Tl	4.033171	4.033171	4.033171
