40

O	2.131200	2.131200	0.000000
O	0.000000	2.131200	2.131200
O	2.131200	0.000000	2.131200
Pb_d	2.131200	2.131200	2.131200
Tm_3	0.000000	0.000000	0.000000
O	2.131200	2.131200	4.262395
O	0.000000	2.131200	6.393595
O	2.131200	0.000000	6.393595
Pb_d	2.131200	2.131200	6.393595
Tm_3	0.000000	0.000000	4.262395
O	2.131200	6.393595	0.000000
O	0.000000	6.393595	2.131200
O	2.131200	4.262395	2.131200
Pb_d	2.131200	6.393595	2.131200
Tm_3	0.000000	4.262395	0.000000
O	2.131200	6.393595	4.262395
O	0.000000	6.393595	6.393595
O	2.131200	4.262395	6.393595
Pb_d	2.131200	6.393595	6.393595
Tm_3	0.000000	4.262395	4.262395
O	6.393595	2.131200	0.000000
O	4.262395	2.131200	2.131200
O	6.393595	0.000000	2.131200
Pb_d	6.393595	2.131200	2.131200
Tm_3	4.262395	0.000000	0.000000
O	6.393595	2.131200	4.262395
O	4.262395	2.131200	6.393595
O	6.393595	0.000000	6.393595
Pb_d	6.393595	2.131200	6.393595
Tm_3	4.262395	0.000000	4.262395
O	6.393595	6.393595	0.000000
O	4.262395	6.393595	2.131200
O	6.393595	4.262395	2.131200
Pb_d	6.393595	6.393595	2.131200
Tm_3	4.262395	4.262395	0.000000
O	6.393595	6.393595	4.262395
O	4.262395	6.393595	6.393595
O	6.393595	4.262395	6.393595
Pb_d	6.393595	6.393595	6.393595
Tm_3	4.262395	4.262395	4.262395
