40

O	2.130430	2.130430	0.000000
O	0.000000	2.130430	2.130430
O	2.130430	0.000000	2.130430
Pb_d	2.130430	2.130430	2.130430
Tm_3	0.000000	0.000000	0.000000
O	2.130430	2.130430	4.260868
O	0.000000	2.130430	6.391298
O	2.130430	0.000000	6.391298
Pb_d	2.130430	2.130430	6.391298
Tm_3	0.000000	0.000000	4.260868
O	2.130430	6.391298	0.000000
O	0.000000	6.391298	2.130430
O	2.130430	4.260868	2.130430
Pb_d	2.130430	6.391298	2.130430
Tm_3	0.000000	4.260868	0.000000
O	2.130430	6.391298	4.260868
O	0.000000	6.391298	6.391298
O	2.130430	4.260868	6.391298
Pb_d	2.130430	6.391298	6.391298
Tm_3	0.000000	4.260868	4.260868
O	6.391298	2.130430	0.000000
O	4.260868	2.130430	2.130430
O	6.391298	0.000000	2.130430
Pb_d	6.391298	2.130430	2.130430
Tm_3	4.260868	0.000000	0.000000
O	6.391298	2.130430	4.260868
O	4.260868	2.130430	6.391298
O	6.391298	0.000000	6.391298
Pb_d	6.391298	2.130430	6.391298
Tm_3	4.260868	0.000000	4.260868
O	6.391298	6.391298	0.000000
O	4.260868	6.391298	2.130430
O	6.391298	4.260868	2.130430
Pb_d	6.391298	6.391298	2.130430
Tm_3	4.260868	4.260868	0.000000
O	6.391298	6.391298	4.260868
O	4.260868	6.391298	6.391298
O	6.391298	4.260868	6.391298
Pb_d	6.391298	6.391298	6.391298
Tm_3	4.260868	4.260868	4.260868
