40

Be	1.701164	1.701164	1.701164
O	0.000000	1.701164	1.701164
O	1.701164	0.000000	1.701164
O	1.701164	1.701164	0.000000
Ti	0.000000	0.000000	0.000000
Be	1.701164	1.701164	5.103492
O	0.000000	1.701164	5.103492
O	1.701164	0.000000	5.103492
O	1.701164	1.701164	3.402328
Ti	0.000000	0.000000	3.402328
Be	1.701164	5.103492	1.701164
O	0.000000	5.103492	1.701164
O	1.701164	3.402328	1.701164
O	1.701164	5.103492	0.000000
Ti	0.000000	3.402328	0.000000
Be	1.701164	5.103492	5.103492
O	0.000000	5.103492	5.103492
O	1.701164	3.402328	5.103492
O	1.701164	5.103492	3.402328
Ti	0.000000	3.402328	3.402328
Be	5.103492	1.701164	1.701164
O	3.402328	1.701164	1.701164
O	5.103492	0.000000	1.701164
O	5.103492	1.701164	0.000000
Ti	3.402328	0.000000	0.000000
Be	5.103492	1.701164	5.103492
O	3.402328	1.701164	5.103492
O	5.103492	0.000000	5.103492
O	5.103492	1.701164	3.402328
Ti	3.402328	0.000000	3.402328
Be	5.103492	5.103492	1.701164
O	3.402328	5.103492	1.701164
O	5.103492	3.402328	1.701164
O	5.103492	5.103492	0.000000
Ti	3.402328	3.402328	0.000000
Be	5.103492	5.103492	5.103492
O	3.402328	5.103492	5.103492
O	5.103492	3.402328	5.103492
O	5.103492	5.103492	3.402328
Ti	3.402328	3.402328	3.402328
