40

Be	0.000000	0.000000	0.000000
O	0.000000	1.920233	1.920233
O	1.920233	0.000000	1.920233
O	1.920233	1.920233	0.000000
Ti	1.920233	1.920233	1.920233
Be	0.000000	0.000000	3.840465
O	0.000000	1.920233	5.760698
O	1.920233	0.000000	5.760698
O	1.920233	1.920233	3.840465
Ti	1.920233	1.920233	5.760698
Be	0.000000	3.840465	0.000000
O	0.000000	5.760698	1.920233
O	1.920233	3.840465	1.920233
O	1.920233	5.760698	0.000000
Ti	1.920233	5.760698	1.920233
Be	0.000000	3.840465	3.840465
O	0.000000	5.760698	5.760698
O	1.920233	3.840465	5.760698
O	1.920233	5.760698	3.840465
Ti	1.920233	5.760698	5.760698
Be	3.840465	0.000000	0.000000
O	3.840465	1.920233	1.920233
O	5.760698	0.000000	1.920233
O	5.760698	1.920233	0.000000
Ti	5.760698	1.920233	1.920233
Be	3.840465	0.000000	3.840465
O	3.840465	1.920233	5.760698
O	5.760698	0.000000	5.760698
O	5.760698	1.920233	3.840465
Ti	5.760698	1.920233	5.760698
Be	3.840465	3.840465	0.000000
O	3.840465	5.760698	1.920233
O	5.760698	3.840465	1.920233
O	5.760698	5.760698	0.000000
Ti	5.760698	5.760698	1.920233
Be	3.840465	3.840465	3.840465
O	3.840465	5.760698	5.760698
O	5.760698	3.840465	5.760698
O	5.760698	5.760698	3.840465
Ti	5.760698	5.760698	5.760698
