40

Cd	2.047811	2.047811	2.047811
Hf	0.000000	0.000000	0.000000
O	0.000000	2.047811	2.047811
O	2.047811	0.000000	2.047811
O	2.047811	2.047811	0.000000
Cd	2.047811	2.047811	6.143434
Hf	0.000000	0.000000	4.095622
O	0.000000	2.047811	6.143434
O	2.047811	0.000000	6.143434
O	2.047811	2.047811	4.095622
Cd	2.047811	6.143434	2.047811
Hf	0.000000	4.095622	0.000000
O	0.000000	6.143434	2.047811
O	2.047811	4.095622	2.047811
O	2.047811	6.143434	0.000000
Cd	2.047811	6.143434	6.143434
Hf	0.000000	4.095622	4.095622
O	0.000000	6.143434	6.143434
O	2.047811	4.095622	6.143434
O	2.047811	6.143434	4.095622
Cd	6.143434	2.047811	2.047811
Hf	4.095622	0.000000	0.000000
O	4.095622	2.047811	2.047811
O	6.143434	0.000000	2.047811
O	6.143434	2.047811	0.000000
Cd	6.143434	2.047811	6.143434
Hf	4.095622	0.000000	4.095622
O	4.095622	2.047811	6.143434
O	6.143434	0.000000	6.143434
O	6.143434	2.047811	4.095622
Cd	6.143434	6.143434	2.047811
Hf	4.095622	4.095622	0.000000
O	4.095622	6.143434	2.047811
O	6.143434	4.095622	2.047811
O	6.143434	6.143434	0.000000
Cd	6.143434	6.143434	6.143434
Hf	4.095622	4.095622	4.095622
O	4.095622	6.143434	6.143434
O	6.143434	4.095622	6.143434
O	6.143434	6.143434	4.095622
