112

Hf	0.000000	0.000000	0.000000
Hf	2.440540	-2.441246	-2.441246
O	3.579976	-1.300938	-1.300938
O	-1.301104	1.300938	-3.581554
O	1.301104	-1.300938	-3.581554
O	1.139436	1.140308	-1.140308
O	6.182184	1.300938	-1.300938
O	1.139436	3.742184	-3.742184
O	3.741644	3.742184	-1.140308
O	3.741644	1.140308	-3.742184
Pr	-1.220270	-1.220623	-3.661869
Pr	3.660810	1.220623	-1.220623
Pr	6.101350	-1.220623	-1.220623
Pr	1.220270	1.220623	-3.661869
Hf	4.881080	4.882492	0.000000
Hf	7.321620	2.441246	-2.441246
O	8.461056	3.581554	-1.300938
O	3.579976	6.183430	-3.581554
O	6.182184	3.581554	-3.581554
O	6.020516	6.022800	-1.140308
O	11.063264	6.183430	-1.300938
O	6.020516	8.624677	-3.742184
O	8.622724	8.624677	-1.140308
O	8.622724	6.022800	-3.742184
Pr	3.660810	3.661869	-3.661869
Pr	8.541890	6.103115	-1.220623
Pr	10.982430	3.661869	-1.220623
Pr	6.101350	6.103115	-3.661869
Hf	-4.881080	0.000000	-4.882492
Hf	-2.440540	-2.441246	-7.323738
O	-1.301104	-1.300938	-6.183430
O	-6.182184	1.300938	-8.464046
O	-3.579976	-1.300938	-8.464046
O	-3.741644	1.140308	-6.022800
O	1.301104	1.300938	-6.183430
O	-3.741644	3.742184	-8.624677
O	-1.139436	3.742184	-6.022800
O	-1.139436	1.140308	-8.624677
Pr	-6.101350	-1.220623	-8.544361
Pr	-1.220270	1.220623	-6.103115
Pr	1.220270	-1.220623	-6.103115
Pr	-3.660810	1.220623	-8.544361
Hf	0.000000	4.882492	-4.882492
Hf	2.440540	2.441246	-7.323738
O	3.579976	3.581554	-6.183430
O	-1.301104	6.183430	-8.464046
O	1.301104	3.581554	-8.464046
O	1.139436	6.022800	-6.022800
O	6.182184	6.183430	-6.183430
O	1.139436	8.624677	-8.624677
O	3.741644	8.624677	-6.022800
O	3.741644	6.022800	-8.624677
Pr	-1.220270	3.661869	-8.544361
Pr	3.660810	6.103115	-6.103115
Pr	6.101350	3.661869	-6.103115
Pr	1.220270	6.103115	-8.544361
Hf	4.881080	-4.882492	0.000000
Hf	7.321620	-7.323738	-2.441246
O	8.461056	-6.183430	-1.300938
O	3.579976	-3.581554	-3.581554
O	6.182184	-6.183430	-3.581554
O	6.020516	-3.742184	-1.140308
O	11.063264	-3.581554	-1.300938
O	6.020516	-1.140308	-3.742184
O	8.622724	-1.140308	-1.140308
O	8.622724	-3.742184	-3.742184
Pr	3.660810	-6.103115	-3.661869
Pr	8.541890	-3.661869	-1.220623
Pr	10.982430	-6.103115	-1.220623
Pr	6.101350	-3.661869	-3.661869
Hf	9.762160	0.000000	0.000000
Hf	12.202700	-2.441246	-2.441246
O	13.342136	-1.300938	-1.300938
O	8.461056	1.300938	-3.581554
O	11.063264	-1.300938	-3.581554
O	10.901596	1.140308	-1.140308
O	15.944344	1.300938	-1.300938
O	10.901596	3.742184	-3.742184
O	13.503804	3.742184	-1.140308
O	13.503804	1.140308	-3.742184
Pr	8.541890	-1.220623	-3.661869
Pr	13.422970	1.220623	-1.220623
Pr	15.863510	-1.220623	-1.220623
Pr	10.982430	1.220623	-3.661869
Hf	0.000000	-4.882492	-4.882492
Hf	2.440540	-7.323738	-7.323738
O	3.579976	-6.183430	-6.183430
O	-1.301104	-3.581554	-8.464046
O	1.301104	-6.183430	-8.464046
O	1.139436	-3.742184	-6.022800
O	6.182184	-3.581554	-6.183430
O	1.139436	-1.140308	-8.624677
O	3.741644	-1.140308	-6.022800
O	3.741644	-3.742184	-8.624677
Pr	-1.220270	-6.103115	-8.544361
Pr	3.660810	-3.661869	-6.103115
Pr	6.101350	-6.103115	-6.103115
Pr	1.220270	-3.661869	-8.544361
Hf	4.881080	0.000000	-4.882492
Hf	7.321620	-2.441246	-7.323738
O	8.461056	-1.300938	-6.183430
O	3.579976	1.300938	-8.464046
O	6.182184	-1.300938	-8.464046
O	6.020516	1.140308	-6.022800
O	11.063264	1.300938	-6.183430
O	6.020516	3.742184	-8.624677
O	8.622724	3.742184	-6.022800
O	8.622724	1.140308	-8.624677
Pr	3.660810	-1.220623	-8.544361
Pr	8.541890	1.220623	-6.103115
Pr	10.982430	-1.220623	-6.103115
Pr	6.101350	1.220623	-8.544361
