40

Bi	2.142303	2.142303	2.142303
Mn	0.000000	0.000000	0.000000
O	0.000000	2.142303	2.142303
O	2.142303	0.000000	2.142303
O	2.142303	2.142303	0.000000
Bi	2.142303	2.142303	6.426908
Mn	0.000000	0.000000	4.284606
O	0.000000	2.142303	6.426908
O	2.142303	0.000000	6.426908
O	2.142303	2.142303	4.284606
Bi	2.142303	6.426908	2.142303
Mn	0.000000	4.284606	0.000000
O	0.000000	6.426908	2.142303
O	2.142303	4.284606	2.142303
O	2.142303	6.426908	0.000000
Bi	2.142303	6.426908	6.426908
Mn	0.000000	4.284606	4.284606
O	0.000000	6.426908	6.426908
O	2.142303	4.284606	6.426908
O	2.142303	6.426908	4.284606
Bi	6.426908	2.142303	2.142303
Mn	4.284606	0.000000	0.000000
O	4.284606	2.142303	2.142303
O	6.426908	0.000000	2.142303
O	6.426908	2.142303	0.000000
Bi	6.426908	2.142303	6.426908
Mn	4.284606	0.000000	4.284606
O	4.284606	2.142303	6.426908
O	6.426908	0.000000	6.426908
O	6.426908	2.142303	4.284606
Bi	6.426908	6.426908	2.142303
Mn	4.284606	4.284606	0.000000
O	4.284606	6.426908	2.142303
O	6.426908	4.284606	2.142303
O	6.426908	6.426908	0.000000
Bi	6.426908	6.426908	6.426908
Mn	4.284606	4.284606	4.284606
O	4.284606	6.426908	6.426908
O	6.426908	4.284606	6.426908
O	6.426908	6.426908	4.284606
