40

O	1.993160	1.993160	0.000000
O	0.000000	1.993160	1.993160
O	1.993160	0.000000	1.993160
Os	0.000000	0.000000	0.000000
Sc	1.993160	1.993160	1.993160
O	1.993160	1.993160	3.986321
O	0.000000	1.993160	5.979481
O	1.993160	0.000000	5.979481
Os	0.000000	0.000000	3.986321
Sc	1.993160	1.993160	5.979481
O	1.993160	5.979481	0.000000
O	0.000000	5.979481	1.993160
O	1.993160	3.986321	1.993160
Os	0.000000	3.986321	0.000000
Sc	1.993160	5.979481	1.993160
O	1.993160	5.979481	3.986321
O	0.000000	5.979481	5.979481
O	1.993160	3.986321	5.979481
Os	0.000000	3.986321	3.986321
Sc	1.993160	5.979481	5.979481
O	5.979481	1.993160	0.000000
O	3.986321	1.993160	1.993160
O	5.979481	0.000000	1.993160
Os	3.986321	0.000000	0.000000
Sc	5.979481	1.993160	1.993160
O	5.979481	1.993160	3.986321
O	3.986321	1.993160	5.979481
O	5.979481	0.000000	5.979481
Os	3.986321	0.000000	3.986321
Sc	5.979481	1.993160	5.979481
O	5.979481	5.979481	0.000000
O	3.986321	5.979481	1.993160
O	5.979481	3.986321	1.993160
Os	3.986321	3.986321	0.000000
Sc	5.979481	5.979481	1.993160
O	5.979481	5.979481	3.986321
O	3.986321	5.979481	5.979481
O	5.979481	3.986321	5.979481
Os	3.986321	3.986321	3.986321
Sc	5.979481	5.979481	5.979481
