440

Zn	2.309215	2.392149	2.392149
Zn	4.701364	0.000000	4.701364
Zn	2.309215	7.010579	7.010579
Zn	4.701364	4.701364	0.000000
Zn	7.093512	2.392149	7.010579
Zn	0.000000	0.000000	0.000000
Zn	7.093512	7.010579	2.392149
Y	1.191125	8.252584	3.510239
Y	3.530123	1.171241	8.231487
Y	3.551220	3.510239	5.892489
Y	1.191125	1.150144	5.892489
Y	1.191125	3.510239	8.252584
Y	3.551220	5.892489	3.510239
Y	3.530123	8.231487	1.171241
Y	1.191125	5.892489	1.150144
Y	5.872604	8.231487	8.231487
Y	8.211602	1.150144	3.510239
Y	8.211602	3.510239	1.150144
Y	5.872604	1.171241	1.171241
Y	5.851507	3.510239	3.510239
Y	8.211602	5.892489	8.252584
Y	8.211602	8.252584	5.892489
Y	5.851507	5.892489	5.892489
O	3.589659	1.111705	1.111705
O	5.847470	3.589579	5.813149
O	5.813068	1.111705	8.291023
O	3.555258	3.589579	3.589579
O	3.504330	1.197034	5.941514
O	1.240150	8.205694	1.197034
O	1.240150	1.197034	8.205694
O	3.504330	8.205694	3.461213
O	3.555258	5.813149	5.813149
O	5.813068	8.291023	1.111705
O	5.847470	5.813149	3.589579
O	3.589659	8.291023	8.291023
O	3.504330	5.941514	1.197034
O	1.440229	3.261135	6.141592
O	1.440229	6.141592	3.261135
O	3.504330	3.461213	8.205694
O	8.290942	1.146106	5.813149
O	1.111785	3.589579	1.146106
O	1.111785	1.146106	3.589579
O	8.290942	3.589579	8.256622
O	8.162577	1.197034	1.197034
O	5.898398	8.205694	5.941514
O	5.898398	1.197034	3.461213
O	8.162577	8.205694	8.205694
O	8.290942	5.813149	1.146106
O	1.111785	8.256622	5.813149
O	1.111785	5.813149	8.256622
O	8.290942	8.256622	3.589579
O	7.962499	6.141592	6.141592
O	5.898398	3.461213	1.197034
O	5.898398	5.941514	8.205694
O	7.962499	3.261135	3.261135
Zn	2.309215	2.392149	11.794876
Zn	4.701364	0.000000	14.104091
Zn	2.309215	7.010579	16.413306
Zn	4.701364	4.701364	9.402727
Zn	7.093512	2.392149	16.413306
Zn	0.000000	0.000000	9.402727
Zn	7.093512	7.010579	11.794876
Y	1.191125	8.252584	12.912966
Y	3.530123	1.171241	17.634214
Y	3.551220	3.510239	15.295216
Y	1.191125	1.150144	15.295216
Y	1.191125	3.510239	17.655311
Y	3.551220	5.892489	12.912966
Y	3.530123	8.231487	10.573968
Y	1.191125	5.892489	10.552871
Y	5.872604	8.231487	17.634214
Y	8.211602	1.150144	12.912966
Y	8.211602	3.510239	10.552871
Y	5.872604	1.171241	10.573968
Y	5.851507	3.510239	12.912966
Y	8.211602	5.892489	17.655311
Y	8.211602	8.252584	15.295216
Y	5.851507	5.892489	15.295216
O	3.589659	1.111705	10.514432
O	5.847470	3.589579	15.215876
O	5.813068	1.111705	17.693750
O	3.555258	3.589579	12.992306
O	3.504330	1.197034	15.344242
O	1.240150	8.205694	10.599761
O	1.240150	1.197034	17.608421
O	3.504330	8.205694	12.863941
O	3.555258	5.813149	15.215876
O	5.813068	8.291023	10.514432
O	5.847470	5.813149	12.992306
O	3.589659	8.291023	17.693750
O	3.504330	5.941514	10.599761
O	1.440229	3.261135	15.544320
O	1.440229	6.141592	12.663863
O	3.504330	3.461213	17.608421
O	8.290942	1.146106	15.215876
O	1.111785	3.589579	10.548833
O	1.111785	1.146106	12.992306
O	8.290942	3.589579	17.659349
O	8.162577	1.197034	10.599761
O	5.898398	8.205694	15.344242
O	5.898398	1.197034	12.863941
O	8.162577	8.205694	17.608421
O	8.290942	5.813149	10.548833
O	1.111785	8.256622	15.215876
O	1.111785	5.813149	17.659349
O	8.290942	8.256622	12.992306
O	7.962499	6.141592	15.544320
O	5.898398	3.461213	10.599761
O	5.898398	5.941514	17.608421
O	7.962499	3.261135	12.663863
Zn	2.309215	11.794876	2.392149
Zn	4.701364	9.402727	4.701364
Zn	2.309215	16.413306	7.010579
Zn	4.701364	14.104091	0.000000
Zn	7.093512	11.794876	7.010579
Zn	0.000000	9.402727	0.000000
Zn	7.093512	16.413306	2.392149
Y	1.191125	17.655311	3.510239
Y	3.530123	10.573968	8.231487
Y	3.551220	12.912966	5.892489
Y	1.191125	10.552871	5.892489
Y	1.191125	12.912966	8.252584
Y	3.551220	15.295216	3.510239
Y	3.530123	17.634214	1.171241
Y	1.191125	15.295216	1.150144
Y	5.872604	17.634214	8.231487
Y	8.211602	10.552871	3.510239
Y	8.211602	12.912966	1.150144
Y	5.872604	10.573968	1.171241
Y	5.851507	12.912966	3.510239
Y	8.211602	15.295216	8.252584
Y	8.211602	17.655311	5.892489
Y	5.851507	15.295216	5.892489
O	3.589659	10.514432	1.111705
O	5.847470	12.992306	5.813149
O	5.813068	10.514432	8.291023
O	3.555258	12.992306	3.589579
O	3.504330	10.599761	5.941514
O	1.240150	17.608421	1.197034
O	1.240150	10.599761	8.205694
O	3.504330	17.608421	3.461213
O	3.555258	15.215876	5.813149
O	5.813068	17.693750	1.111705
O	5.847470	15.215876	3.589579
O	3.589659	17.693750	8.291023
O	3.504330	15.344242	1.197034
O	1.440229	12.663863	6.141592
O	1.440229	15.544320	3.261135
O	3.504330	12.863941	8.205694
O	8.290942	10.548833	5.813149
O	1.111785	12.992306	1.146106
O	1.111785	10.548833	3.589579
O	8.290942	12.992306	8.256622
O	8.162577	10.599761	1.197034
O	5.898398	17.608421	5.941514
O	5.898398	10.599761	3.461213
O	8.162577	17.608421	8.205694
O	8.290942	15.215876	1.146106
O	1.111785	17.659349	5.813149
O	1.111785	15.215876	8.256622
O	8.290942	17.659349	3.589579
O	7.962499	15.544320	6.141592
O	5.898398	12.863941	1.197034
O	5.898398	15.344242	8.205694
O	7.962499	12.663863	3.261135
Zn	2.309215	11.794876	11.794876
Zn	4.701364	9.402727	14.104091
Zn	2.309215	16.413306	16.413306
Zn	4.701364	14.104091	9.402727
Zn	7.093512	11.794876	16.413306
Zn	0.000000	9.402727	9.402727
Zn	7.093512	16.413306	11.794876
Y	1.191125	17.655311	12.912966
Y	3.530123	10.573968	17.634214
Y	3.551220	12.912966	15.295216
Y	1.191125	10.552871	15.295216
Y	1.191125	12.912966	17.655311
Y	3.551220	15.295216	12.912966
Y	3.530123	17.634214	10.573968
Y	1.191125	15.295216	10.552871
Y	5.872604	17.634214	17.634214
Y	8.211602	10.552871	12.912966
Y	8.211602	12.912966	10.552871
Y	5.872604	10.573968	10.573968
Y	5.851507	12.912966	12.912966
Y	8.211602	15.295216	17.655311
Y	8.211602	17.655311	15.295216
Y	5.851507	15.295216	15.295216
O	3.589659	10.514432	10.514432
O	5.847470	12.992306	15.215876
O	5.813068	10.514432	17.693750
O	3.555258	12.992306	12.992306
O	3.504330	10.599761	15.344242
O	1.240150	17.608421	10.599761
O	1.240150	10.599761	17.608421
O	3.504330	17.608421	12.863941
O	3.555258	15.215876	15.215876
O	5.813068	17.693750	10.514432
O	5.847470	15.215876	12.992306
O	3.589659	17.693750	17.693750
O	3.504330	15.344242	10.599761
O	1.440229	12.663863	15.544320
O	1.440229	15.544320	12.663863
O	3.504330	12.863941	17.608421
O	8.290942	10.548833	15.215876
O	1.111785	12.992306	10.548833
O	1.111785	10.548833	12.992306
O	8.290942	12.992306	17.659349
O	8.162577	10.599761	10.599761
O	5.898398	17.608421	15.344242
O	5.898398	10.599761	12.863941
O	8.162577	17.608421	17.608421
O	8.290942	15.215876	10.548833
O	1.111785	17.659349	15.215876
O	1.111785	15.215876	17.659349
O	8.290942	17.659349	12.992306
O	7.962499	15.544320	15.544320
O	5.898398	12.863941	10.599761
O	5.898398	15.344242	17.608421
O	7.962499	12.663863	12.663863
Zn	11.711943	2.392149	2.392149
Zn	14.104091	0.000000	4.701364
Zn	11.711943	7.010579	7.010579
Zn	14.104091	4.701364	0.000000
Zn	16.496240	2.392149	7.010579
Zn	9.402727	0.000000	0.000000
Zn	16.496240	7.010579	2.392149
Y	10.593853	8.252584	3.510239
Y	12.932851	1.171241	8.231487
Y	12.953948	3.510239	5.892489
Y	10.593853	1.150144	5.892489
Y	10.593853	3.510239	8.252584
Y	12.953948	5.892489	3.510239
Y	12.932851	8.231487	1.171241
Y	10.593853	5.892489	1.150144
Y	15.275332	8.231487	8.231487
Y	17.614330	1.150144	3.510239
Y	17.614330	3.510239	1.150144
Y	15.275332	1.171241	1.171241
Y	15.254235	3.510239	3.510239
Y	17.614330	5.892489	8.252584
Y	17.614330	8.252584	5.892489
Y	15.254235	5.892489	5.892489
O	12.992387	1.111705	1.111705
O	15.250197	3.589579	5.813149
O	15.215796	1.111705	8.291023
O	12.957985	3.589579	3.589579
O	12.907057	1.197034	5.941514
O	10.642878	8.205694	1.197034
O	10.642878	1.197034	8.205694
O	12.907057	8.205694	3.461213
O	12.957985	5.813149	5.813149
O	15.215796	8.291023	1.111705
O	15.250197	5.813149	3.589579
O	12.992387	8.291023	8.291023
O	12.907057	5.941514	1.197034
O	10.842956	3.261135	6.141592
O	10.842956	6.141592	3.261135
O	12.907057	3.461213	8.205694
O	17.693670	1.146106	5.813149
O	10.514513	3.589579	1.146106
O	10.514513	1.146106	3.589579
O	17.693670	3.589579	8.256622
O	17.565305	1.197034	1.197034
O	15.301125	8.205694	5.941514
O	15.301125	1.197034	3.461213
O	17.565305	8.205694	8.205694
O	17.693670	5.813149	1.146106
O	10.514513	8.256622	5.813149
O	10.514513	5.813149	8.256622
O	17.693670	8.256622	3.589579
O	17.365226	6.141592	6.141592
O	15.301125	3.461213	1.197034
O	15.301125	5.941514	8.205694
O	17.365226	3.261135	3.261135
Zn	11.711943	2.392149	11.794876
Zn	14.104091	0.000000	14.104091
Zn	11.711943	7.010579	16.413306
Zn	14.104091	4.701364	9.402727
Zn	16.496240	2.392149	16.413306
Zn	9.402727	0.000000	9.402727
Zn	16.496240	7.010579	11.794876
Y	10.593853	8.252584	12.912966
Y	12.932851	1.171241	17.634214
Y	12.953948	3.510239	15.295216
Y	10.593853	1.150144	15.295216
Y	10.593853	3.510239	17.655311
Y	12.953948	5.892489	12.912966
Y	12.932851	8.231487	10.573968
Y	10.593853	5.892489	10.552871
Y	15.275332	8.231487	17.634214
Y	17.614330	1.150144	12.912966
Y	17.614330	3.510239	10.552871
Y	15.275332	1.171241	10.573968
Y	15.254235	3.510239	12.912966
Y	17.614330	5.892489	17.655311
Y	17.614330	8.252584	15.295216
Y	15.254235	5.892489	15.295216
O	12.992387	1.111705	10.514432
O	15.250197	3.589579	15.215876
O	15.215796	1.111705	17.693750
O	12.957985	3.589579	12.992306
O	12.907057	1.197034	15.344242
O	10.642878	8.205694	10.599761
O	10.642878	1.197034	17.608421
O	12.907057	8.205694	12.863941
O	12.957985	5.813149	15.215876
O	15.215796	8.291023	10.514432
O	15.250197	5.813149	12.992306
O	12.992387	8.291023	17.693750
O	12.907057	5.941514	10.599761
O	10.842956	3.261135	15.544320
O	10.842956	6.141592	12.663863
O	12.907057	3.461213	17.608421
O	17.693670	1.146106	15.215876
O	10.514513	3.589579	10.548833
O	10.514513	1.146106	12.992306
O	17.693670	3.589579	17.659349
O	17.565305	1.197034	10.599761
O	15.301125	8.205694	15.344242
O	15.301125	1.197034	12.863941
O	17.565305	8.205694	17.608421
O	17.693670	5.813149	10.548833
O	10.514513	8.256622	15.215876
O	10.514513	5.813149	17.659349
O	17.693670	8.256622	12.992306
O	17.365226	6.141592	15.544320
O	15.301125	3.461213	10.599761
O	15.301125	5.941514	17.608421
O	17.365226	3.261135	12.663863
Zn	11.711943	11.794876	2.392149
Zn	14.104091	9.402727	4.701364
Zn	11.711943	16.413306	7.010579
Zn	14.104091	14.104091	0.000000
Zn	16.496240	11.794876	7.010579
Zn	9.402727	9.402727	0.000000
Zn	16.496240	16.413306	2.392149
Y	10.593853	17.655311	3.510239
Y	12.932851	10.573968	8.231487
Y	12.953948	12.912966	5.892489
Y	10.593853	10.552871	5.892489
Y	10.593853	12.912966	8.252584
Y	12.953948	15.295216	3.510239
Y	12.932851	17.634214	1.171241
Y	10.593853	15.295216	1.150144
Y	15.275332	17.634214	8.231487
Y	17.614330	10.552871	3.510239
Y	17.614330	12.912966	1.150144
Y	15.275332	10.573968	1.171241
Y	15.254235	12.912966	3.510239
Y	17.614330	15.295216	8.252584
Y	17.614330	17.655311	5.892489
Y	15.254235	15.295216	5.892489
O	12.992387	10.514432	1.111705
O	15.250197	12.992306	5.813149
O	15.215796	10.514432	8.291023
O	12.957985	12.992306	3.589579
O	12.907057	10.599761	5.941514
O	10.642878	17.608421	1.197034
O	10.642878	10.599761	8.205694
O	12.907057	17.608421	3.461213
O	12.957985	15.215876	5.813149
O	15.215796	17.693750	1.111705
O	15.250197	15.215876	3.589579
O	12.992387	17.693750	8.291023
O	12.907057	15.344242	1.197034
O	10.842956	12.663863	6.141592
O	10.842956	15.544320	3.261135
O	12.907057	12.863941	8.205694
O	17.693670	10.548833	5.813149
O	10.514513	12.992306	1.146106
O	10.514513	10.548833	3.589579
O	17.693670	12.992306	8.256622
O	17.565305	10.599761	1.197034
O	15.301125	17.608421	5.941514
O	15.301125	10.599761	3.461213
O	17.565305	17.608421	8.205694
O	17.693670	15.215876	1.146106
O	10.514513	17.659349	5.813149
O	10.514513	15.215876	8.256622
O	17.693670	17.659349	3.589579
O	17.365226	15.544320	6.141592
O	15.301125	12.863941	1.197034
O	15.301125	15.344242	8.205694
O	17.365226	12.663863	3.261135
Zn	11.711943	11.794876	11.794876
Zn	14.104091	9.402727	14.104091
Zn	11.711943	16.413306	16.413306
Zn	14.104091	14.104091	9.402727
Zn	16.496240	11.794876	16.413306
Zn	9.402727	9.402727	9.402727
Zn	16.496240	16.413306	11.794876
Y	10.593853	17.655311	12.912966
Y	12.932851	10.573968	17.634214
Y	12.953948	12.912966	15.295216
Y	10.593853	10.552871	15.295216
Y	10.593853	12.912966	17.655311
Y	12.953948	15.295216	12.912966
Y	12.932851	17.634214	10.573968
Y	10.593853	15.295216	10.552871
Y	15.275332	17.634214	17.634214
Y	17.614330	10.552871	12.912966
Y	17.614330	12.912966	10.552871
Y	15.275332	10.573968	10.573968
Y	15.254235	12.912966	12.912966
Y	17.614330	15.295216	17.655311
Y	17.614330	17.655311	15.295216
Y	15.254235	15.295216	15.295216
O	12.992387	10.514432	10.514432
O	15.250197	12.992306	15.215876
O	15.215796	10.514432	17.693750
O	12.957985	12.992306	12.992306
O	12.907057	10.599761	15.344242
O	10.642878	17.608421	10.599761
O	10.642878	10.599761	17.608421
O	12.907057	17.608421	12.863941
O	12.957985	15.215876	15.215876
O	15.215796	17.693750	10.514432
O	15.250197	15.215876	12.992306
O	12.992387	17.693750	17.693750
O	12.907057	15.344242	10.599761
O	10.842956	12.663863	15.544320
O	10.842956	15.544320	12.663863
O	12.907057	12.863941	17.608421
O	17.693670	10.548833	15.215876
O	10.514513	12.992306	10.548833
O	10.514513	10.548833	12.992306
O	17.693670	12.992306	17.659349
O	17.565305	10.599761	10.599761
O	15.301125	17.608421	15.344242
O	15.301125	10.599761	12.863941
O	17.565305	17.608421	17.608421
O	17.693670	15.215876	10.548833
O	10.514513	17.659349	15.215876
O	10.514513	15.215876	17.659349
O	17.693670	17.659349	12.992306
O	17.365226	15.544320	15.544320
O	15.301125	12.863941	10.599761
O	15.301125	15.344242	17.608421
O	17.365226	12.663863	12.663863
