40

Ge	0.000000	0.000000	0.000000
Np	2.182645	2.182645	2.182645
O	2.182645	2.182645	0.000000
O	2.182645	0.000000	2.182645
O	0.000000	2.182645	2.182645
Ge	0.000000	0.000000	4.365291
Np	2.182645	2.182645	6.547936
O	2.182645	2.182645	4.365291
O	2.182645	0.000000	6.547936
O	0.000000	2.182645	6.547936
Ge	0.000000	4.365291	0.000000
Np	2.182645	6.547936	2.182645
O	2.182645	6.547936	0.000000
O	2.182645	4.365291	2.182645
O	0.000000	6.547936	2.182645
Ge	0.000000	4.365291	4.365291
Np	2.182645	6.547936	6.547936
O	2.182645	6.547936	4.365291
O	2.182645	4.365291	6.547936
O	0.000000	6.547936	6.547936
Ge	4.365291	0.000000	0.000000
Np	6.547936	2.182645	2.182645
O	6.547936	2.182645	0.000000
O	6.547936	0.000000	2.182645
O	4.365291	2.182645	2.182645
Ge	4.365291	0.000000	4.365291
Np	6.547936	2.182645	6.547936
O	6.547936	2.182645	4.365291
O	6.547936	0.000000	6.547936
O	4.365291	2.182645	6.547936
Ge	4.365291	4.365291	0.000000
Np	6.547936	6.547936	2.182645
O	6.547936	6.547936	0.000000
O	6.547936	4.365291	2.182645
O	4.365291	6.547936	2.182645
Ge	4.365291	4.365291	4.365291
Np	6.547936	6.547936	6.547936
O	6.547936	6.547936	4.365291
O	6.547936	4.365291	6.547936
O	4.365291	6.547936	6.547936
