112

Ho	0.000000	0.000000	0.000000
Ho	2.240977	-2.241784	-2.241784
O	3.464589	-1.017174	-1.017174
O	-1.017365	1.017174	-3.466395
O	1.017365	-1.017174	-3.466395
O	1.223612	1.224610	-1.224610
O	5.499319	1.017174	-1.017174
O	1.223612	3.258958	-3.258958
O	3.258342	3.258958	-1.224610
O	3.258342	1.224610	-3.258958
Tc	-1.120488	-1.120892	-3.362677
Tc	3.361465	1.120892	-1.120892
Tc	5.602442	-1.120892	-1.120892
Tc	1.120488	1.120892	-3.362677
Ho	4.481954	4.483569	0.000000
Ho	6.722930	2.241784	-2.241784
O	7.946542	3.466395	-1.017174
O	3.464589	5.500743	-3.466395
O	5.499319	3.466395	-3.466395
O	5.705565	5.708179	-1.224610
O	9.981272	5.500743	-1.017174
O	5.705565	7.742527	-3.258958
O	7.740295	7.742527	-1.224610
O	7.740295	5.708179	-3.258958
Tc	3.361465	3.362677	-3.362677
Tc	7.843419	5.604461	-1.120892
Tc	10.084396	3.362677	-1.120892
Tc	5.602442	5.604461	-3.362677
Ho	-4.481954	0.000000	-4.483569
Ho	-2.240977	-2.241784	-6.725353
O	-1.017365	-1.017174	-5.500743
O	-5.499319	1.017174	-7.949963
O	-3.464589	-1.017174	-7.949963
O	-3.258342	1.224610	-5.708179
O	1.017365	1.017174	-5.500743
O	-3.258342	3.258958	-7.742527
O	-1.223612	3.258958	-5.708179
O	-1.223612	1.224610	-7.742527
Tc	-5.602442	-1.120892	-7.846245
Tc	-1.120488	1.120892	-5.604461
Tc	1.120488	-1.120892	-5.604461
Tc	-3.361465	1.120892	-7.846245
Ho	0.000000	4.483569	-4.483569
Ho	2.240977	2.241784	-6.725353
O	3.464589	3.466395	-5.500743
O	-1.017365	5.500743	-7.949963
O	1.017365	3.466395	-7.949963
O	1.223612	5.708179	-5.708179
O	5.499319	5.500743	-5.500743
O	1.223612	7.742527	-7.742527
O	3.258342	7.742527	-5.708179
O	3.258342	5.708179	-7.742527
Tc	-1.120488	3.362677	-7.846245
Tc	3.361465	5.604461	-5.604461
Tc	5.602442	3.362677	-5.604461
Tc	1.120488	5.604461	-7.846245
Ho	4.481954	-4.483569	0.000000
Ho	6.722930	-6.725353	-2.241784
O	7.946542	-5.500743	-1.017174
O	3.464589	-3.466395	-3.466395
O	5.499319	-5.500743	-3.466395
O	5.705565	-3.258958	-1.224610
O	9.981272	-3.466395	-1.017174
O	5.705565	-1.224610	-3.258958
O	7.740295	-1.224610	-1.224610
O	7.740295	-3.258958	-3.258958
Tc	3.361465	-5.604461	-3.362677
Tc	7.843419	-3.362677	-1.120892
Tc	10.084396	-5.604461	-1.120892
Tc	5.602442	-3.362677	-3.362677
Ho	8.963907	0.000000	0.000000
Ho	11.204884	-2.241784	-2.241784
O	12.428496	-1.017174	-1.017174
O	7.946542	1.017174	-3.466395
O	9.981272	-1.017174	-3.466395
O	10.187519	1.224610	-1.224610
O	14.463226	1.017174	-1.017174
O	10.187519	3.258958	-3.258958
O	12.222249	3.258958	-1.224610
O	12.222249	1.224610	-3.258958
Tc	7.843419	-1.120892	-3.362677
Tc	12.325372	1.120892	-1.120892
Tc	14.566349	-1.120892	-1.120892
Tc	10.084396	1.120892	-3.362677
Ho	0.000000	-4.483569	-4.483569
Ho	2.240977	-6.725353	-6.725353
O	3.464589	-5.500743	-5.500743
O	-1.017365	-3.466395	-7.949963
O	1.017365	-5.500743	-7.949963
O	1.223612	-3.258958	-5.708179
O	5.499319	-3.466395	-5.500743
O	1.223612	-1.224610	-7.742527
O	3.258342	-1.224610	-5.708179
O	3.258342	-3.258958	-7.742527
Tc	-1.120488	-5.604461	-7.846245
Tc	3.361465	-3.362677	-5.604461
Tc	5.602442	-5.604461	-5.604461
Tc	1.120488	-3.362677	-7.846245
Ho	4.481954	0.000000	-4.483569
Ho	6.722930	-2.241784	-6.725353
O	7.946542	-1.017174	-5.500743
O	3.464589	1.017174	-7.949963
O	5.499319	-1.017174	-7.949963
O	5.705565	1.224610	-5.708179
O	9.981272	1.017174	-5.500743
O	5.705565	3.258958	-7.742527
O	7.740295	3.258958	-5.708179
O	7.740295	1.224610	-7.742527
Tc	3.361465	-1.120892	-7.846245
Tc	7.843419	1.120892	-5.604461
Tc	10.084396	-1.120892	-5.604461
Tc	5.602442	1.120892	-7.846245
