40

Bi	0.000000	0.000000	0.000000
Mg	1.972149	1.972149	1.972149
O	0.000000	1.972149	1.972149
O	1.972149	0.000000	1.972149
O	1.972149	1.972149	0.000000
Bi	0.000000	0.000000	3.944298
Mg	1.972149	1.972149	5.916447
O	0.000000	1.972149	5.916447
O	1.972149	0.000000	5.916447
O	1.972149	1.972149	3.944298
Bi	0.000000	3.944298	0.000000
Mg	1.972149	5.916447	1.972149
O	0.000000	5.916447	1.972149
O	1.972149	3.944298	1.972149
O	1.972149	5.916447	0.000000
Bi	0.000000	3.944298	3.944298
Mg	1.972149	5.916447	5.916447
O	0.000000	5.916447	5.916447
O	1.972149	3.944298	5.916447
O	1.972149	5.916447	3.944298
Bi	3.944298	0.000000	0.000000
Mg	5.916447	1.972149	1.972149
O	3.944298	1.972149	1.972149
O	5.916447	0.000000	1.972149
O	5.916447	1.972149	0.000000
Bi	3.944298	0.000000	3.944298
Mg	5.916447	1.972149	5.916447
O	3.944298	1.972149	5.916447
O	5.916447	0.000000	5.916447
O	5.916447	1.972149	3.944298
Bi	3.944298	3.944298	0.000000
Mg	5.916447	5.916447	1.972149
O	3.944298	5.916447	1.972149
O	5.916447	3.944298	1.972149
O	5.916447	5.916447	0.000000
Bi	3.944298	3.944298	3.944298
Mg	5.916447	5.916447	5.916447
O	3.944298	5.916447	5.916447
O	5.916447	3.944298	5.916447
O	5.916447	5.916447	3.944298
