40

Nb	0.000000	0.000000	0.000000
O	2.103102	2.103102	0.000000
O	2.103102	0.000000	2.103102
O	0.000000	2.103102	2.103102
Pb	2.103102	2.103102	2.103102
Nb	0.000000	0.000000	4.206213
O	2.103102	2.103102	4.206213
O	2.103102	0.000000	6.309315
O	0.000000	2.103102	6.309315
Pb	2.103102	2.103102	6.309315
Nb	0.000000	4.206213	0.000000
O	2.103102	6.309315	0.000000
O	2.103102	4.206213	2.103102
O	0.000000	6.309315	2.103102
Pb	2.103102	6.309315	2.103102
Nb	0.000000	4.206213	4.206213
O	2.103102	6.309315	4.206213
O	2.103102	4.206213	6.309315
O	0.000000	6.309315	6.309315
Pb	2.103102	6.309315	6.309315
Nb	4.206213	0.000000	0.000000
O	6.309315	2.103102	0.000000
O	6.309315	0.000000	2.103102
O	4.206213	2.103102	2.103102
Pb	6.309315	2.103102	2.103102
Nb	4.206213	0.000000	4.206213
O	6.309315	2.103102	4.206213
O	6.309315	0.000000	6.309315
O	4.206213	2.103102	6.309315
Pb	6.309315	2.103102	6.309315
Nb	4.206213	4.206213	0.000000
O	6.309315	6.309315	0.000000
O	6.309315	4.206213	2.103102
O	4.206213	6.309315	2.103102
Pb	6.309315	6.309315	2.103102
Nb	4.206213	4.206213	4.206213
O	6.309315	6.309315	4.206213
O	6.309315	4.206213	6.309315
O	4.206213	6.309315	6.309315
Pb	6.309315	6.309315	6.309315
