40

Nb	2.046138	2.046138	2.046138
O	0.000000	2.046138	2.046138
O	2.046138	0.000000	2.046138
O	2.046138	2.046138	0.000000
Pb	0.000000	0.000000	0.000000
Nb	2.046138	2.046138	6.138415
O	0.000000	2.046138	6.138415
O	2.046138	0.000000	6.138415
O	2.046138	2.046138	4.092277
Pb	0.000000	0.000000	4.092277
Nb	2.046138	6.138415	2.046138
O	0.000000	6.138415	2.046138
O	2.046138	4.092277	2.046138
O	2.046138	6.138415	0.000000
Pb	0.000000	4.092277	0.000000
Nb	2.046138	6.138415	6.138415
O	0.000000	6.138415	6.138415
O	2.046138	4.092277	6.138415
O	2.046138	6.138415	4.092277
Pb	0.000000	4.092277	4.092277
Nb	6.138415	2.046138	2.046138
O	4.092277	2.046138	2.046138
O	6.138415	0.000000	2.046138
O	6.138415	2.046138	0.000000
Pb	4.092277	0.000000	0.000000
Nb	6.138415	2.046138	6.138415
O	4.092277	2.046138	6.138415
O	6.138415	0.000000	6.138415
O	6.138415	2.046138	4.092277
Pb	4.092277	0.000000	4.092277
Nb	6.138415	6.138415	2.046138
O	4.092277	6.138415	2.046138
O	6.138415	4.092277	2.046138
O	6.138415	6.138415	0.000000
Pb	4.092277	4.092277	0.000000
Nb	6.138415	6.138415	6.138415
O	4.092277	6.138415	6.138415
O	6.138415	4.092277	6.138415
O	6.138415	6.138415	4.092277
Pb	4.092277	4.092277	4.092277
