40

Nb	0.000000	0.000000	0.000000
O	0.000000	2.144184	2.144184
O	2.144184	0.000000	2.144184
O	2.144184	2.144184	0.000000
Y	2.144184	2.144184	2.144184
Nb	0.000000	0.000000	4.288367
O	0.000000	2.144184	6.432551
O	2.144184	0.000000	6.432551
O	2.144184	2.144184	4.288367
Y	2.144184	2.144184	6.432551
Nb	0.000000	4.288367	0.000000
O	0.000000	6.432551	2.144184
O	2.144184	4.288367	2.144184
O	2.144184	6.432551	0.000000
Y	2.144184	6.432551	2.144184
Nb	0.000000	4.288367	4.288367
O	0.000000	6.432551	6.432551
O	2.144184	4.288367	6.432551
O	2.144184	6.432551	4.288367
Y	2.144184	6.432551	6.432551
Nb	4.288367	0.000000	0.000000
O	4.288367	2.144184	2.144184
O	6.432551	0.000000	2.144184
O	6.432551	2.144184	0.000000
Y	6.432551	2.144184	2.144184
Nb	4.288367	0.000000	4.288367
O	4.288367	2.144184	6.432551
O	6.432551	0.000000	6.432551
O	6.432551	2.144184	4.288367
Y	6.432551	2.144184	6.432551
Nb	4.288367	4.288367	0.000000
O	4.288367	6.432551	2.144184
O	6.432551	4.288367	2.144184
O	6.432551	6.432551	0.000000
Y	6.432551	6.432551	2.144184
Nb	4.288367	4.288367	4.288367
O	4.288367	6.432551	6.432551
O	6.432551	4.288367	6.432551
O	6.432551	6.432551	4.288367
Y	6.432551	6.432551	6.432551
