40

O	0.000000	2.032167	2.032167
O	2.032167	0.000000	2.032167
O	2.032167	2.032167	0.000000
Ca	0.000000	0.000000	0.000000
Sn	2.032167	2.032167	2.032167
O	0.000000	2.032167	6.096502
O	2.032167	0.000000	6.096502
O	2.032167	2.032167	4.064334
Ca	0.000000	0.000000	4.064334
Sn	2.032167	2.032167	6.096502
O	0.000000	6.096502	2.032167
O	2.032167	4.064334	2.032167
O	2.032167	6.096502	0.000000
Ca	0.000000	4.064334	0.000000
Sn	2.032167	6.096502	2.032167
O	0.000000	6.096502	6.096502
O	2.032167	4.064334	6.096502
O	2.032167	6.096502	4.064334
Ca	0.000000	4.064334	4.064334
Sn	2.032167	6.096502	6.096502
O	4.064334	2.032167	2.032167
O	6.096502	0.000000	2.032167
O	6.096502	2.032167	0.000000
Ca	4.064334	0.000000	0.000000
Sn	6.096502	2.032167	2.032167
O	4.064334	2.032167	6.096502
O	6.096502	0.000000	6.096502
O	6.096502	2.032167	4.064334
Ca	4.064334	0.000000	4.064334
Sn	6.096502	2.032167	6.096502
O	4.064334	6.096502	2.032167
O	6.096502	4.064334	2.032167
O	6.096502	6.096502	0.000000
Ca	4.064334	4.064334	0.000000
Sn	6.096502	6.096502	2.032167
O	4.064334	6.096502	6.096502
O	6.096502	4.064334	6.096502
O	6.096502	6.096502	4.064334
Ca	4.064334	4.064334	4.064334
Sn	6.096502	6.096502	6.096502
