40

Hf	0.000000	0.000000	0.000000
Ir	1.966945	1.966945	1.966945
O	0.000000	1.966945	1.966945
O	1.966945	0.000000	1.966945
O	1.966945	1.966945	0.000000
Hf	0.000000	0.000000	3.933890
Ir	1.966945	1.966945	5.900835
O	0.000000	1.966945	5.900835
O	1.966945	0.000000	5.900835
O	1.966945	1.966945	3.933890
Hf	0.000000	3.933890	0.000000
Ir	1.966945	5.900835	1.966945
O	0.000000	5.900835	1.966945
O	1.966945	3.933890	1.966945
O	1.966945	5.900835	0.000000
Hf	0.000000	3.933890	3.933890
Ir	1.966945	5.900835	5.900835
O	0.000000	5.900835	5.900835
O	1.966945	3.933890	5.900835
O	1.966945	5.900835	3.933890
Hf	3.933890	0.000000	0.000000
Ir	5.900835	1.966945	1.966945
O	3.933890	1.966945	1.966945
O	5.900835	0.000000	1.966945
O	5.900835	1.966945	0.000000
Hf	3.933890	0.000000	3.933890
Ir	5.900835	1.966945	5.900835
O	3.933890	1.966945	5.900835
O	5.900835	0.000000	5.900835
O	5.900835	1.966945	3.933890
Hf	3.933890	3.933890	0.000000
Ir	5.900835	5.900835	1.966945
O	3.933890	5.900835	1.966945
O	5.900835	3.933890	1.966945
O	5.900835	5.900835	0.000000
Hf	3.933890	3.933890	3.933890
Ir	5.900835	5.900835	5.900835
O	3.933890	5.900835	5.900835
O	5.900835	3.933890	5.900835
O	5.900835	5.900835	3.933890
