40

Hg	2.123719	2.123719	2.123719
O	0.000000	2.123719	2.123719
O	2.123719	0.000000	2.123719
O	2.123719	2.123719	0.000000
Pb	0.000000	0.000000	0.000000
Hg	2.123719	2.123719	6.371158
O	0.000000	2.123719	6.371158
O	2.123719	0.000000	6.371158
O	2.123719	2.123719	4.247438
Pb	0.000000	0.000000	4.247438
Hg	2.123719	6.371158	2.123719
O	0.000000	6.371158	2.123719
O	2.123719	4.247438	2.123719
O	2.123719	6.371158	0.000000
Pb	0.000000	4.247438	0.000000
Hg	2.123719	6.371158	6.371158
O	0.000000	6.371158	6.371158
O	2.123719	4.247438	6.371158
O	2.123719	6.371158	4.247438
Pb	0.000000	4.247438	4.247438
Hg	6.371158	2.123719	2.123719
O	4.247438	2.123719	2.123719
O	6.371158	0.000000	2.123719
O	6.371158	2.123719	0.000000
Pb	4.247438	0.000000	0.000000
Hg	6.371158	2.123719	6.371158
O	4.247438	2.123719	6.371158
O	6.371158	0.000000	6.371158
O	6.371158	2.123719	4.247438
Pb	4.247438	0.000000	4.247438
Hg	6.371158	6.371158	2.123719
O	4.247438	6.371158	2.123719
O	6.371158	4.247438	2.123719
O	6.371158	6.371158	0.000000
Pb	4.247438	4.247438	0.000000
Hg	6.371158	6.371158	6.371158
O	4.247438	6.371158	6.371158
O	6.371158	4.247438	6.371158
O	6.371158	6.371158	4.247438
Pb	4.247438	4.247438	4.247438
