40

Al	1.971348	1.971348	1.971348
O	0.000000	1.971348	1.971348
O	1.971348	0.000000	1.971348
O	1.971348	1.971348	0.000000
Rb	0.000000	0.000000	0.000000
Al	1.971348	1.971348	5.914044
O	0.000000	1.971348	5.914044
O	1.971348	0.000000	5.914044
O	1.971348	1.971348	3.942696
Rb	0.000000	0.000000	3.942696
Al	1.971348	5.914044	1.971348
O	0.000000	5.914044	1.971348
O	1.971348	3.942696	1.971348
O	1.971348	5.914044	0.000000
Rb	0.000000	3.942696	0.000000
Al	1.971348	5.914044	5.914044
O	0.000000	5.914044	5.914044
O	1.971348	3.942696	5.914044
O	1.971348	5.914044	3.942696
Rb	0.000000	3.942696	3.942696
Al	5.914044	1.971348	1.971348
O	3.942696	1.971348	1.971348
O	5.914044	0.000000	1.971348
O	5.914044	1.971348	0.000000
Rb	3.942696	0.000000	0.000000
Al	5.914044	1.971348	5.914044
O	3.942696	1.971348	5.914044
O	5.914044	0.000000	5.914044
O	5.914044	1.971348	3.942696
Rb	3.942696	0.000000	3.942696
Al	5.914044	5.914044	1.971348
O	3.942696	5.914044	1.971348
O	5.914044	3.942696	1.971348
O	5.914044	5.914044	0.000000
Rb	3.942696	3.942696	0.000000
Al	5.914044	5.914044	5.914044
O	3.942696	5.914044	5.914044
O	5.914044	3.942696	5.914044
O	5.914044	5.914044	3.942696
Rb	3.942696	3.942696	3.942696
