112

Na	0.000000	0.000000	0.000000
Na	2.082883	-2.083030	-2.083030
O	3.307251	-0.858216	-0.858216
O	-0.858515	0.858216	-3.307844
O	0.858515	-0.858216	-3.307844
O	1.224368	1.224814	-1.224814
O	5.024281	0.858216	-0.858216
O	1.224368	2.941246	-2.941246
O	2.941398	2.941246	-1.224814
O	2.941398	1.224814	-2.941246
Si	-1.041437	-1.041510	-3.124540
Si	3.124319	1.041510	-1.041510
Si	1.041437	1.041510	-3.124540
Si	5.207202	-1.041510	-1.041510
Na	4.165764	4.166058	0.000000
Na	6.248647	2.083028	-2.083030
O	7.473015	3.307842	-0.858216
O	3.307249	5.024273	-3.307844
O	5.024280	3.307842	-3.307844
O	5.390132	5.390872	-1.224814
O	9.190045	5.024273	-0.858216
O	5.390132	7.107303	-2.941246
O	7.107163	7.107303	-1.224814
O	7.107162	5.390872	-2.941246
Si	3.124328	3.124548	-3.124540
Si	7.290084	5.207568	-1.041510
Si	5.207201	5.207568	-3.124540
Si	9.372967	3.124548	-1.041510
Na	-4.165764	0.000000	-4.166058
Na	-2.082882	-2.083030	-6.249088
O	-0.858514	-0.858216	-5.024273
O	-5.024280	0.858216	-7.473902
O	-3.307249	-0.858216	-7.473902
O	-2.941397	1.224814	-5.390872
O	0.858516	0.858216	-5.024273
O	-2.941397	2.941246	-7.107303
O	-1.224366	2.941246	-5.390872
O	-1.224367	1.224814	-7.107303
Si	-5.207201	-1.041510	-7.290598
Si	-1.041445	1.041510	-5.207568
Si	-3.124328	1.041510	-7.290598
Si	1.041438	-1.041510	-5.207568
Na	0.000000	4.166058	-4.166058
Na	2.082883	2.083028	-6.249088
O	3.307251	3.307842	-5.024273
O	-0.858515	5.024273	-7.473902
O	0.858515	3.307842	-7.473902
O	1.224368	5.390872	-5.390872
O	5.024281	5.024273	-5.024273
O	1.224368	7.107303	-7.107303
O	2.941398	7.107303	-5.390872
O	2.941398	5.390872	-7.107303
Si	-1.041437	3.124548	-7.290598
Si	3.124319	5.207568	-5.207568
Si	1.041437	5.207568	-7.290598
Si	5.207202	3.124548	-5.207568
Na	4.165764	-4.166058	0.000000
Na	6.248647	-6.249088	-2.083030
O	7.473015	-5.024273	-0.858216
O	3.307249	-3.307842	-3.307844
O	5.024280	-5.024273	-3.307844
O	5.390132	-2.941243	-1.224814
O	9.190045	-3.307842	-0.858216
O	5.390132	-1.224812	-2.941246
O	7.107163	-1.224812	-1.224814
O	7.107162	-2.941243	-2.941246
Si	3.124328	-5.207568	-3.124540
Si	7.290084	-3.124548	-1.041510
Si	5.207201	-3.124548	-3.124540
Si	9.372967	-5.207568	-1.041510
Na	8.331529	0.000000	0.000000
Na	10.414412	-2.083030	-2.083030
O	11.638780	-0.858216	-0.858216
O	7.473014	0.858216	-3.307844
O	9.190044	-0.858216	-3.307844
O	9.555897	1.224814	-1.224814
O	13.355810	0.858216	-0.858216
O	9.555897	2.941246	-2.941246
O	11.272927	2.941246	-1.224814
O	11.272927	1.224814	-2.941246
Si	7.290092	-1.041510	-3.124540
Si	11.455848	1.041510	-1.041510
Si	9.372966	1.041510	-3.124540
Si	13.538731	-1.041510	-1.041510
Na	0.000000	-4.166058	-4.166058
Na	2.082883	-6.249088	-6.249088
O	3.307251	-5.024273	-5.024273
O	-0.858515	-3.307842	-7.473902
O	0.858515	-5.024273	-7.473902
O	1.224368	-2.941243	-5.390872
O	5.024281	-3.307842	-5.024273
O	1.224368	-1.224812	-7.107303
O	2.941398	-1.224812	-5.390872
O	2.941398	-2.941243	-7.107303
Si	-1.041437	-5.207568	-7.290598
Si	3.124319	-3.124548	-5.207568
Si	1.041437	-3.124548	-7.290598
Si	5.207202	-5.207568	-5.207568
Na	4.165764	0.000000	-4.166058
Na	6.248647	-2.083030	-6.249088
O	7.473015	-0.858216	-5.024273
O	3.307249	0.858216	-7.473902
O	5.024280	-0.858216	-7.473902
O	5.390132	1.224814	-5.390872
O	9.190045	0.858216	-5.024273
O	5.390132	2.941246	-7.107303
O	7.107163	2.941246	-5.390872
O	7.107162	1.224814	-7.107303
Si	3.124328	-1.041510	-7.290598
Si	7.290084	1.041510	-5.207568
Si	5.207201	1.041510	-7.290598
Si	9.372967	-1.041510	-5.207568
