112

Ge	0.000000	0.000000	0.000000
Ge	2.399162	-2.399564	-2.399564
O	3.441670	-1.357323	-1.357323
O	-1.356655	1.357323	-3.441806
O	1.356655	-1.357323	-3.441806
O	1.042507	1.042241	-1.042241
O	6.154979	1.357323	-1.357323
O	1.042507	3.756888	-3.756887
O	3.755817	3.756888	-1.042241
O	3.755817	1.042241	-3.756887
Pb	-1.199581	-1.199782	-3.599347
Pb	3.598743	1.199782	-1.199782
Pb	5.997906	-1.199782	-1.199782
Pb	1.199581	1.199782	-3.599347
Ge	4.798325	4.799129	0.000000
Ge	7.197487	2.399564	-2.399564
O	8.239994	3.441806	-1.357323
O	3.441670	6.156452	-3.441806
O	6.154979	3.441806	-3.441806
O	5.840832	5.841370	-1.042241
O	10.953304	6.156452	-1.357323
O	5.840832	8.556016	-3.756887
O	8.554142	8.556016	-1.042241
O	8.554142	5.841370	-3.756887
Pb	3.598743	3.599347	-3.599347
Pb	8.397068	5.998911	-1.199782
Pb	10.796230	3.599347	-1.199782
Pb	5.997906	5.998911	-3.599347
Ge	-4.798325	0.000000	-4.799129
Ge	-2.399162	-2.399564	-7.198693
O	-1.356655	-1.357323	-6.156452
O	-6.154979	1.357323	-8.240935
O	-3.441670	-1.357323	-8.240935
O	-3.755817	1.042241	-5.841370
O	1.356655	1.357323	-6.156452
O	-3.755817	3.756888	-8.556016
O	-1.042507	3.756888	-5.841370
O	-1.042507	1.042241	-8.556016
Pb	-5.997906	-1.199782	-8.398476
Pb	-1.199581	1.199782	-5.998911
Pb	1.199581	-1.199782	-5.998911
Pb	-3.598743	1.199782	-8.398476
Ge	0.000000	4.799129	-4.799129
Ge	2.399162	2.399564	-7.198693
O	3.441670	3.441806	-6.156452
O	-1.356655	6.156452	-8.240935
O	1.356655	3.441806	-8.240935
O	1.042507	5.841370	-5.841370
O	6.154979	6.156452	-6.156452
O	1.042507	8.556016	-8.556016
O	3.755817	8.556016	-5.841370
O	3.755817	5.841370	-8.556016
Pb	-1.199581	3.599347	-8.398476
Pb	3.598743	5.998911	-5.998911
Pb	5.997906	3.599347	-5.998911
Pb	1.199581	5.998911	-8.398476
Ge	4.798325	-4.799129	0.000000
Ge	7.197487	-7.198693	-2.399564
O	8.239994	-6.156452	-1.357323
O	3.441670	-3.441806	-3.441806
O	6.154979	-6.156452	-3.441806
O	5.840832	-3.756887	-1.042241
O	10.953304	-3.441806	-1.357323
O	5.840832	-1.042241	-3.756887
O	8.554142	-1.042241	-1.042241
O	8.554142	-3.756887	-3.756887
Pb	3.598743	-5.998911	-3.599347
Pb	8.397068	-3.599347	-1.199782
Pb	10.796230	-5.998911	-1.199782
Pb	5.997906	-3.599347	-3.599347
Ge	9.596649	0.000000	0.000000
Ge	11.995811	-2.399564	-2.399564
O	13.038319	-1.357323	-1.357323
O	8.239994	1.357323	-3.441806
O	10.953304	-1.357323	-3.441806
O	10.639157	1.042241	-1.042241
O	15.751629	1.357323	-1.357323
O	10.639157	3.756888	-3.756887
O	13.352466	3.756888	-1.042241
O	13.352466	1.042241	-3.756887
Pb	8.397068	-1.199782	-3.599347
Pb	13.195393	1.199782	-1.199782
Pb	15.594555	-1.199782	-1.199782
Pb	10.796230	1.199782	-3.599347
Ge	0.000000	-4.799129	-4.799129
Ge	2.399162	-7.198693	-7.198693
O	3.441670	-6.156452	-6.156452
O	-1.356655	-3.441806	-8.240935
O	1.356655	-6.156452	-8.240935
O	1.042507	-3.756887	-5.841370
O	6.154979	-3.441806	-6.156452
O	1.042507	-1.042241	-8.556016
O	3.755817	-1.042241	-5.841370
O	3.755817	-3.756887	-8.556016
Pb	-1.199581	-5.998911	-8.398476
Pb	3.598743	-3.599347	-5.998911
Pb	5.997906	-5.998911	-5.998911
Pb	1.199581	-3.599347	-8.398476
Ge	4.798325	0.000000	-4.799129
Ge	7.197487	-2.399564	-7.198693
O	8.239994	-1.357323	-6.156452
O	3.441670	1.357323	-8.240935
O	6.154979	-1.357323	-8.240935
O	5.840832	1.042241	-5.841370
O	10.953304	1.357323	-6.156452
O	5.840832	3.756888	-8.556016
O	8.554142	3.756888	-5.841370
O	8.554142	1.042241	-8.556016
Pb	3.598743	-1.199782	-8.398476
Pb	8.397068	1.199782	-5.998911
Pb	10.796230	-1.199782	-5.998911
Pb	5.997906	1.199782	-8.398476
