112

O	1.167358	1.169110	-1.169110
O	-1.267041	1.266703	-3.604934
O	3.601757	-1.266703	-1.266703
O	1.267041	-1.266703	-3.604934
O	1.167358	3.702527	-3.702527
O	3.701439	3.702527	-1.169110
O	3.701439	1.169110	-3.702527
O	6.135828	1.266703	-1.266703
Pt	0.000000	0.000000	0.000000
Pt	2.434399	-2.435824	-2.435824
Sr	-1.217194	-1.217907	-3.653731
Sr	3.651593	1.217907	-1.217907
Sr	1.217194	1.217907	-3.653731
Sr	6.085992	-1.217907	-1.217907
O	6.036153	6.040755	-1.169110
O	3.601754	6.138348	-3.604934
O	8.470551	3.604941	-1.266703
O	6.135835	3.604941	-3.604934
O	6.036153	8.574171	-3.702527
O	8.570234	8.574171	-1.169110
O	8.570234	6.040755	-3.702527
O	11.004623	6.138348	-1.266703
Pt	4.868795	4.871644	0.000000
Pt	7.303193	2.435820	-2.435824
Sr	3.651600	3.653737	-3.653731
Sr	8.520388	6.089551	-1.217907
Sr	6.085989	6.089551	-3.653731
Sr	10.954787	3.653737	-1.217907
O	-3.701437	1.169110	-6.040755
O	-6.135835	1.266703	-8.476578
O	-1.267038	-1.266703	-6.138348
O	-3.601754	-1.266703	-8.476578
O	-3.701437	3.702527	-8.574171
O	-1.167355	3.702527	-6.040755
O	-1.167355	1.169110	-8.574171
O	1.267033	1.266703	-6.138348
Pt	-4.868795	0.000000	-4.871644
Pt	-2.434396	-2.435824	-7.307468
Sr	-6.085989	-1.217907	-8.525375
Sr	-1.217202	1.217907	-6.089551
Sr	-3.651600	1.217907	-8.525375
Sr	1.217197	-1.217907	-6.089551
O	1.167358	6.040755	-6.040755
O	-1.267041	6.138348	-8.476578
O	3.601757	3.604941	-6.138348
O	1.267041	3.604941	-8.476578
O	1.167358	8.574171	-8.574171
O	3.701439	8.574171	-6.040755
O	3.701439	6.040755	-8.574171
O	6.135828	6.138348	-6.138348
Pt	0.000000	4.871644	-4.871644
Pt	2.434399	2.435820	-7.307468
Sr	-1.217194	3.653737	-8.525375
Sr	3.651593	6.089551	-6.089551
Sr	1.217194	6.089551	-8.525375
Sr	6.085992	3.653737	-6.089551
O	6.036153	-3.702534	-1.169110
O	3.601754	-3.604941	-3.604934
O	8.470551	-6.138348	-1.266703
O	6.135835	-6.138348	-3.604934
O	6.036153	-1.169117	-3.702527
O	8.570234	-1.169117	-1.169110
O	8.570234	-3.702534	-3.702527
O	11.004623	-3.604941	-1.266703
Pt	4.868795	-4.871644	0.000000
Pt	7.303193	-7.307468	-2.435824
Sr	3.651600	-6.089551	-3.653731
Sr	8.520388	-3.653737	-1.217907
Sr	6.085989	-3.653737	-3.653731
Sr	10.954787	-6.089551	-1.217907
O	10.904948	1.169110	-1.169110
O	8.470549	1.266703	-3.604934
O	13.339346	-1.266703	-1.266703
O	11.004630	-1.266703	-3.604934
O	10.904948	3.702527	-3.702527
O	13.439029	3.702527	-1.169110
O	13.439029	1.169110	-3.702527
O	15.873418	1.266703	-1.266703
Pt	9.737590	0.000000	0.000000
Pt	12.171988	-2.435824	-2.435824
Sr	8.520395	-1.217907	-3.653731
Sr	13.389183	1.217907	-1.217907
Sr	10.954784	1.217907	-3.653731
Sr	15.823581	-1.217907	-1.217907
O	1.167358	-3.702534	-6.040755
O	-1.267041	-3.604941	-8.476578
O	3.601757	-6.138348	-6.138348
O	1.267041	-6.138348	-8.476578
O	1.167358	-1.169117	-8.574171
O	3.701439	-1.169117	-6.040755
O	3.701439	-3.702534	-8.574171
O	6.135828	-3.604941	-6.138348
Pt	0.000000	-4.871644	-4.871644
Pt	2.434399	-7.307468	-7.307468
Sr	-1.217194	-6.089551	-8.525375
Sr	3.651593	-3.653737	-6.089551
Sr	1.217194	-3.653737	-8.525375
Sr	6.085992	-6.089551	-6.089551
O	6.036153	1.169110	-6.040755
O	3.601754	1.266703	-8.476578
O	8.470551	-1.266703	-6.138348
O	6.135835	-1.266703	-8.476578
O	6.036153	3.702527	-8.574171
O	8.570234	3.702527	-6.040755
O	8.570234	1.169110	-8.574171
O	11.004623	1.266703	-6.138348
Pt	4.868795	0.000000	-4.871644
Pt	7.303193	-2.435824	-7.307468
Sr	3.651600	-1.217907	-8.525375
Sr	8.520388	1.217907	-6.089551
Sr	6.085989	1.217907	-8.525375
Sr	10.954787	-1.217907	-6.089551
