40

O	1.907131	1.907131	0.000000
O	0.000000	1.907131	1.907131
O	1.907131	0.000000	1.907131
Sm	0.000000	0.000000	0.000000
V	1.892131	1.907131	1.907131
O	1.907131	1.907131	3.814262
O	0.000000	1.907131	5.721393
O	1.907131	0.000000	5.721393
Sm	0.000000	0.000000	3.814262
V	1.892131	1.907131	5.721393
O	1.907131	5.721393	0.000000
O	0.000000	5.721393	1.907131
O	1.907131	3.814262	1.907131
Sm	0.000000	3.814262	0.000000
V	1.892131	5.721393	1.907131
O	1.907131	5.721393	3.814262
O	0.000000	5.721393	5.721393
O	1.907131	3.814262	5.721393
Sm	0.000000	3.814262	3.814262
V	1.892131	5.721393	5.721393
O	5.721393	1.907131	0.000000
O	3.814262	1.907131	1.907131
O	5.721393	0.000000	1.907131
Sm	3.814262	0.000000	0.000000
V	5.706393	1.907131	1.907131
O	5.721393	1.907131	3.814262
O	3.814262	1.907131	5.721393
O	5.721393	0.000000	5.721393
Sm	3.814262	0.000000	3.814262
V	5.706393	1.907131	5.721393
O	5.721393	5.721393	0.000000
O	3.814262	5.721393	1.907131
O	5.721393	3.814262	1.907131
Sm	3.814262	3.814262	0.000000
V	5.706393	5.721393	1.907131
O	5.721393	5.721393	3.814262
O	3.814262	5.721393	5.721393
O	5.721393	3.814262	5.721393
Sm	3.814262	3.814262	3.814262
V	5.706393	5.721393	5.721393
