112

O	3.773199	-0.915411	-0.915412
O	-0.915726	0.915412	-3.773231
O	0.915726	-0.915411	-3.773231
O	1.428737	1.428910	-1.428910
O	5.604651	0.915412	-0.915412
O	1.428736	3.259733	-3.259733
O	3.260188	3.259733	-1.428910
O	3.260188	1.428910	-3.259733
Pb	0.000000	0.000000	0.000000
Pb	2.344462	-2.344321	-2.344321
Ta	-1.172231	-1.172161	-3.516482
Ta	3.516694	1.172161	-1.172161
Ta	5.861156	-1.172161	-1.172161
Ta	1.172231	1.172161	-3.516482
O	8.462124	3.773231	-0.915412
O	3.773199	5.604054	-3.773231
O	5.604651	3.773231	-3.773231
O	6.117661	6.117553	-1.428910
O	10.293576	5.604054	-0.915412
O	6.117661	7.948376	-3.259733
O	7.949113	7.948376	-1.428910
O	7.949113	6.117553	-3.259733
Pb	4.688925	4.688643	0.000000
Pb	7.033387	2.344321	-2.344321
Ta	3.516694	3.516482	-3.516482
Ta	8.205619	5.860803	-1.172161
Ta	10.550081	3.516482	-1.172161
Ta	5.861156	5.860803	-3.516482
O	-0.915726	-0.915411	-5.604054
O	-5.604651	0.915412	-8.461874
O	-3.773199	-0.915411	-8.461874
O	-3.260188	1.428910	-6.117553
O	0.915726	0.915412	-5.604054
O	-3.260188	3.259733	-7.948376
O	-1.428736	3.259733	-6.117553
O	-1.428737	1.428910	-7.948376
Pb	-4.688925	0.000000	-4.688643
Pb	-2.344462	-2.344321	-7.032964
Ta	-5.861156	-1.172161	-8.205125
Ta	-1.172231	1.172161	-5.860803
Ta	1.172231	-1.172161	-5.860803
Ta	-3.516694	1.172161	-8.205125
O	3.773199	3.773231	-5.604054
O	-0.915726	5.604054	-8.461874
O	0.915726	3.773231	-8.461874
O	1.428737	6.117553	-6.117553
O	5.604651	5.604054	-5.604054
O	1.428736	7.948376	-7.948376
O	3.260188	7.948376	-6.117553
O	3.260188	6.117553	-7.948376
Pb	0.000000	4.688643	-4.688643
Pb	2.344462	2.344321	-7.032964
Ta	-1.172231	3.516482	-8.205125
Ta	3.516694	5.860803	-5.860803
Ta	5.861156	3.516482	-5.860803
Ta	1.172231	5.860803	-8.205125
O	8.462124	-5.604054	-0.915412
O	3.773199	-3.773231	-3.773231
O	5.604651	-5.604054	-3.773231
O	6.117661	-3.259733	-1.428910
O	10.293576	-3.773231	-0.915412
O	6.117661	-1.428910	-3.259733
O	7.949113	-1.428910	-1.428910
O	7.949113	-3.259733	-3.259733
Pb	4.688925	-4.688643	0.000000
Pb	7.033387	-7.032964	-2.344321
Ta	3.516694	-5.860803	-3.516482
Ta	8.205619	-3.516482	-1.172161
Ta	10.550081	-5.860803	-1.172161
Ta	5.861156	-3.516482	-3.516482
O	13.151049	-0.915411	-0.915412
O	8.462124	0.915412	-3.773231
O	10.293576	-0.915411	-3.773231
O	10.806586	1.428910	-1.428910
O	14.982501	0.915412	-0.915412
O	10.806586	3.259733	-3.259733
O	12.638038	3.259733	-1.428910
O	12.638038	1.428910	-3.259733
Pb	9.377850	0.000000	0.000000
Pb	11.722312	-2.344321	-2.344321
Ta	8.205619	-1.172161	-3.516482
Ta	12.894543	1.172161	-1.172161
Ta	15.239006	-1.172161	-1.172161
Ta	10.550081	1.172161	-3.516482
O	3.773199	-5.604054	-5.604054
O	-0.915726	-3.773231	-8.461874
O	0.915726	-5.604054	-8.461874
O	1.428737	-3.259733	-6.117553
O	5.604651	-3.773231	-5.604054
O	1.428736	-1.428910	-7.948376
O	3.260188	-1.428910	-6.117553
O	3.260188	-3.259733	-7.948376
Pb	0.000000	-4.688643	-4.688643
Pb	2.344462	-7.032964	-7.032964
Ta	-1.172231	-5.860803	-8.205125
Ta	3.516694	-3.516482	-5.860803
Ta	5.861156	-5.860803	-5.860803
Ta	1.172231	-3.516482	-8.205125
O	8.462124	-0.915411	-5.604054
O	3.773199	0.915412	-8.461874
O	5.604651	-0.915411	-8.461874
O	6.117661	1.428910	-6.117553
O	10.293576	0.915412	-5.604054
O	6.117661	3.259733	-7.948376
O	7.949113	3.259733	-6.117553
O	7.949113	1.428910	-7.948376
Pb	4.688925	0.000000	-4.688643
Pb	7.033387	-2.344321	-7.032964
Ta	3.516694	-1.172161	-8.205125
Ta	8.205619	1.172161	-5.860803
Ta	10.550081	-1.172161	-5.860803
Ta	5.861156	1.172161	-8.205125
