40

Ge	0.000000	0.000000	0.000000
O	1.968389	1.968389	0.000000
O	1.968389	0.000000	1.968389
O	0.000000	1.968389	1.968389
Os	1.968389	1.968389	1.968389
Ge	0.000000	0.000000	3.936777
O	1.968389	1.968389	3.936777
O	1.968389	0.000000	5.905166
O	0.000000	1.968389	5.905166
Os	1.968389	1.968389	5.905166
Ge	0.000000	3.936777	0.000000
O	1.968389	5.905166	0.000000
O	1.968389	3.936777	1.968389
O	0.000000	5.905166	1.968389
Os	1.968389	5.905166	1.968389
Ge	0.000000	3.936777	3.936777
O	1.968389	5.905166	3.936777
O	1.968389	3.936777	5.905166
O	0.000000	5.905166	5.905166
Os	1.968389	5.905166	5.905166
Ge	3.936777	0.000000	0.000000
O	5.905166	1.968389	0.000000
O	5.905166	0.000000	1.968389
O	3.936777	1.968389	1.968389
Os	5.905166	1.968389	1.968389
Ge	3.936777	0.000000	3.936777
O	5.905166	1.968389	3.936777
O	5.905166	0.000000	5.905166
O	3.936777	1.968389	5.905166
Os	5.905166	1.968389	5.905166
Ge	3.936777	3.936777	0.000000
O	5.905166	5.905166	0.000000
O	5.905166	3.936777	1.968389
O	3.936777	5.905166	1.968389
Os	5.905166	5.905166	1.968389
Ge	3.936777	3.936777	3.936777
O	5.905166	5.905166	3.936777
O	5.905166	3.936777	5.905166
O	3.936777	5.905166	5.905166
Os	5.905166	5.905166	5.905166
