40

C	1.836753	1.836753	1.836753
I	0.000000	0.000000	0.000000
O	0.000000	1.836753	1.836753
O	1.836753	0.000000	1.836753
O	1.836753	1.836753	0.000000
C	1.836753	1.836753	5.510259
I	0.000000	0.000000	3.673506
O	0.000000	1.836753	5.510259
O	1.836753	0.000000	5.510259
O	1.836753	1.836753	3.673506
C	1.836753	5.510259	1.836753
I	0.000000	3.673506	0.000000
O	0.000000	5.510259	1.836753
O	1.836753	3.673506	1.836753
O	1.836753	5.510259	0.000000
C	1.836753	5.510259	5.510259
I	0.000000	3.673506	3.673506
O	0.000000	5.510259	5.510259
O	1.836753	3.673506	5.510259
O	1.836753	5.510259	3.673506
C	5.510259	1.836753	1.836753
I	3.673506	0.000000	0.000000
O	3.673506	1.836753	1.836753
O	5.510259	0.000000	1.836753
O	5.510259	1.836753	0.000000
C	5.510259	1.836753	5.510259
I	3.673506	0.000000	3.673506
O	3.673506	1.836753	5.510259
O	5.510259	0.000000	5.510259
O	5.510259	1.836753	3.673506
C	5.510259	5.510259	1.836753
I	3.673506	3.673506	0.000000
O	3.673506	5.510259	1.836753
O	5.510259	3.673506	1.836753
O	5.510259	5.510259	0.000000
C	5.510259	5.510259	5.510259
I	3.673506	3.673506	3.673506
O	3.673506	5.510259	5.510259
O	5.510259	3.673506	5.510259
O	5.510259	5.510259	3.673506
