112

Au	0.000000	0.000000	0.000000
Au	2.135449	-2.134445	-2.134445
Co	-1.067725	-1.067222	-3.201667
Co	3.203174	1.067222	-1.067222
Co	5.338623	-1.067222	-1.067222
Co	1.067725	1.067222	-3.201667
O	3.373977	-0.895269	-0.895269
O	-0.896921	0.895269	-3.373620
O	0.896921	-0.895269	-3.373620
O	1.238528	1.239175	-1.239175
O	5.167820	0.895269	-0.895269
O	1.238528	3.029714	-3.029714
O	3.032371	3.029714	-1.239175
O	3.032371	1.239175	-3.029714
Au	4.270899	4.268889	0.000000
Au	6.406348	2.134445	-2.134445
Co	3.203174	3.201667	-3.201667
Co	7.474073	5.336112	-1.067222
Co	9.609522	3.201667	-1.067222
Co	5.338623	5.336112	-3.201667
O	7.644876	3.373620	-0.895269
O	3.373977	5.164159	-3.373620
O	5.167820	3.373620	-3.373620
O	5.509427	5.508065	-1.239175
O	9.438719	5.164159	-0.895269
O	5.509427	7.298603	-3.029714
O	7.303270	7.298603	-1.239175
O	7.303270	5.508065	-3.029714
Au	-4.270899	0.000000	-4.268889
Au	-2.135449	-2.134445	-6.403334
Co	-5.338623	-1.067222	-7.470557
Co	-1.067725	1.067222	-5.336112
Co	1.067725	-1.067222	-5.336112
Co	-3.203174	1.067222	-7.470557
O	-0.896921	-0.895269	-5.164159
O	-5.167820	0.895269	-7.642510
O	-3.373977	-0.895269	-7.642510
O	-3.032371	1.239175	-5.508065
O	0.896921	0.895269	-5.164159
O	-3.032371	3.029714	-7.298603
O	-1.238528	3.029714	-5.508065
O	-1.238528	1.239175	-7.298603
Au	0.000000	4.268889	-4.268889
Au	2.135449	2.134445	-6.403334
Co	-1.067725	3.201667	-7.470557
Co	3.203174	5.336112	-5.336112
Co	5.338623	3.201667	-5.336112
Co	1.067725	5.336112	-7.470557
O	3.373977	3.373620	-5.164159
O	-0.896921	5.164159	-7.642510
O	0.896921	3.373620	-7.642510
O	1.238528	5.508065	-5.508065
O	5.167820	5.164159	-5.164159
O	1.238528	7.298603	-7.298603
O	3.032371	7.298603	-5.508065
O	3.032371	5.508065	-7.298603
Au	4.270899	-4.268889	0.000000
Au	6.406348	-6.403334	-2.134445
Co	3.203174	-5.336112	-3.201667
Co	7.474073	-3.201667	-1.067222
Co	9.609522	-5.336112	-1.067222
Co	5.338623	-3.201667	-3.201667
O	7.644876	-5.164159	-0.895269
O	3.373977	-3.373620	-3.373620
O	5.167820	-5.164159	-3.373620
O	5.509427	-3.029714	-1.239175
O	9.438719	-3.373620	-0.895269
O	5.509427	-1.239175	-3.029714
O	7.303270	-1.239175	-1.239175
O	7.303270	-3.029714	-3.029714
Au	8.541797	0.000000	0.000000
Au	10.677247	-2.134445	-2.134445
Co	7.474073	-1.067222	-3.201667
Co	11.744972	1.067222	-1.067222
Co	13.880421	-1.067222	-1.067222
Co	9.609522	1.067222	-3.201667
O	11.915775	-0.895269	-0.895269
O	7.644876	0.895269	-3.373620
O	9.438719	-0.895269	-3.373620
O	9.780325	1.239175	-1.239175
O	13.709618	0.895269	-0.895269
O	9.780325	3.029714	-3.029714
O	11.574168	3.029714	-1.239175
O	11.574168	1.239175	-3.029714
Au	0.000000	-4.268889	-4.268889
Au	2.135449	-6.403334	-6.403334
Co	-1.067725	-5.336112	-7.470557
Co	3.203174	-3.201667	-5.336112
Co	5.338623	-5.336112	-5.336112
Co	1.067725	-3.201667	-7.470557
O	3.373977	-5.164159	-5.164159
O	-0.896921	-3.373620	-7.642510
O	0.896921	-5.164159	-7.642510
O	1.238528	-3.029714	-5.508065
O	5.167820	-3.373620	-5.164159
O	1.238528	-1.239175	-7.298603
O	3.032371	-1.239175	-5.508065
O	3.032371	-3.029714	-7.298603
Au	4.270899	0.000000	-4.268889
Au	6.406348	-2.134445	-6.403334
Co	3.203174	-1.067222	-7.470557
Co	7.474073	1.067222	-5.336112
Co	9.609522	-1.067222	-5.336112
Co	5.338623	1.067222	-7.470557
O	7.644876	-0.895269	-5.164159
O	3.373977	0.895269	-7.642510
O	5.167820	-0.895269	-7.642510
O	5.509427	1.239175	-5.508065
O	9.438719	0.895269	-5.164159
O	5.509427	3.029714	-7.298603
O	7.303270	3.029714	-5.508065
O	7.303270	1.239175	-7.298603
