40

In	0.000000	0.000000	0.000000
O	2.080245	2.080245	0.000000
O	2.080245	0.000000	2.080245
O	0.000000	2.080245	2.080245
Te	2.080245	2.080245	2.080245
In	0.000000	0.000000	4.160490
O	2.080245	2.080245	4.160490
O	2.080245	0.000000	6.240736
O	0.000000	2.080245	6.240736
Te	2.080245	2.080245	6.240736
In	0.000000	4.160490	0.000000
O	2.080245	6.240736	0.000000
O	2.080245	4.160490	2.080245
O	0.000000	6.240736	2.080245
Te	2.080245	6.240736	2.080245
In	0.000000	4.160490	4.160490
O	2.080245	6.240736	4.160490
O	2.080245	4.160490	6.240736
O	0.000000	6.240736	6.240736
Te	2.080245	6.240736	6.240736
In	4.160490	0.000000	0.000000
O	6.240736	2.080245	0.000000
O	6.240736	0.000000	2.080245
O	4.160490	2.080245	2.080245
Te	6.240736	2.080245	2.080245
In	4.160490	0.000000	4.160490
O	6.240736	2.080245	4.160490
O	6.240736	0.000000	6.240736
O	4.160490	2.080245	6.240736
Te	6.240736	2.080245	6.240736
In	4.160490	4.160490	0.000000
O	6.240736	6.240736	0.000000
O	6.240736	4.160490	2.080245
O	4.160490	6.240736	2.080245
Te	6.240736	6.240736	2.080245
In	4.160490	4.160490	4.160490
O	6.240736	6.240736	4.160490
O	6.240736	4.160490	6.240736
O	4.160490	6.240736	6.240736
Te	6.240736	6.240736	6.240736
