40

O	0.000000	2.003313	2.003313
O	2.003313	0.000000	2.003313
O	2.003313	2.003313	0.000000
Re	0.000000	0.000000	0.000000
W	2.003313	2.003313	2.003313
O	0.000000	2.003313	6.009939
O	2.003313	0.000000	6.009939
O	2.003313	2.003313	4.006626
Re	0.000000	0.000000	4.006626
W	2.003313	2.003313	6.009939
O	0.000000	6.009939	2.003313
O	2.003313	4.006626	2.003313
O	2.003313	6.009939	0.000000
Re	0.000000	4.006626	0.000000
W	2.003313	6.009939	2.003313
O	0.000000	6.009939	6.009939
O	2.003313	4.006626	6.009939
O	2.003313	6.009939	4.006626
Re	0.000000	4.006626	4.006626
W	2.003313	6.009939	6.009939
O	4.006626	2.003313	2.003313
O	6.009939	0.000000	2.003313
O	6.009939	2.003313	0.000000
Re	4.006626	0.000000	0.000000
W	6.009939	2.003313	2.003313
O	4.006626	2.003313	6.009939
O	6.009939	0.000000	6.009939
O	6.009939	2.003313	4.006626
Re	4.006626	0.000000	4.006626
W	6.009939	2.003313	6.009939
O	4.006626	6.009939	2.003313
O	6.009939	4.006626	2.003313
O	6.009939	6.009939	0.000000
Re	4.006626	4.006626	0.000000
W	6.009939	6.009939	2.003313
O	4.006626	6.009939	6.009939
O	6.009939	4.006626	6.009939
O	6.009939	6.009939	4.006626
Re	4.006626	4.006626	4.006626
W	6.009939	6.009939	6.009939
