40

O	0.000000	2.123501	2.123501
O	2.123501	0.000000	2.123501
O	2.123501	2.123501	0.000000
Sb	2.123501	2.123501	2.123501
Y	0.000000	0.000000	0.000000
O	0.000000	2.123501	6.370502
O	2.123501	0.000000	6.370502
O	2.123501	2.123501	4.247001
Sb	2.123501	2.123501	6.370502
Y	0.000000	0.000000	4.247001
O	0.000000	6.370502	2.123501
O	2.123501	4.247001	2.123501
O	2.123501	6.370502	0.000000
Sb	2.123501	6.370502	2.123501
Y	0.000000	4.247001	0.000000
O	0.000000	6.370502	6.370502
O	2.123501	4.247001	6.370502
O	2.123501	6.370502	4.247001
Sb	2.123501	6.370502	6.370502
Y	0.000000	4.247001	4.247001
O	4.247001	2.123501	2.123501
O	6.370502	0.000000	2.123501
O	6.370502	2.123501	0.000000
Sb	6.370502	2.123501	2.123501
Y	4.247001	0.000000	0.000000
O	4.247001	2.123501	6.370502
O	6.370502	0.000000	6.370502
O	6.370502	2.123501	4.247001
Sb	6.370502	2.123501	6.370502
Y	4.247001	0.000000	4.247001
O	4.247001	6.370502	2.123501
O	6.370502	4.247001	2.123501
O	6.370502	6.370502	0.000000
Sb	6.370502	6.370502	2.123501
Y	4.247001	4.247001	0.000000
O	4.247001	6.370502	6.370502
O	6.370502	4.247001	6.370502
O	6.370502	6.370502	4.247001
Sb	6.370502	6.370502	6.370502
Y	4.247001	4.247001	4.247001
