112

Np	0.000000	0.000000	0.000000
Np	2.280784	-2.281569	-2.281569
O	3.607512	-0.953774	-0.953774
O	-0.954066	0.953774	-3.609374
O	0.954066	-0.953774	-3.609374
O	1.326728	1.327795	-1.327795
O	5.515634	0.953774	-0.953774
O	1.326728	3.235343	-3.235343
O	3.234850	3.235343	-1.327795
O	3.234850	1.327795	-3.235343
Re	-1.140397	-1.140789	-3.422358
Re	5.701966	-1.140789	-1.140789
Re	3.421181	1.140789	-1.140789
Re	1.140397	1.140789	-3.422358
Np	4.561575	4.563142	0.000000
Np	6.842359	2.281574	-2.281569
O	8.169087	3.609369	-0.953774
O	3.607509	5.516916	-3.609374
O	5.515641	3.609369	-3.609374
O	5.888303	5.890937	-1.327795
O	10.077209	5.516916	-0.953774
O	5.888303	7.798485	-3.235343
O	7.796425	7.798485	-1.327795
O	7.796425	5.890937	-3.235343
Re	3.421178	3.422353	-3.422358
Re	10.263540	3.422353	-1.140789
Re	7.982756	5.703932	-1.140789
Re	5.701972	5.703932	-3.422358
Np	-4.561575	0.000000	-4.563142
Np	-2.280790	-2.281569	-6.844711
O	-0.954062	-0.953774	-5.516916
O	-5.515641	0.953774	-8.172516
O	-3.607509	-0.953774	-8.172516
O	-3.234847	1.327795	-5.890937
O	0.954060	0.953774	-5.516916
O	-3.234847	3.235343	-7.798485
O	-1.326724	3.235343	-5.890937
O	-1.326724	1.327795	-7.798485
Re	-5.701972	-1.140789	-7.985501
Re	1.140391	-1.140789	-5.703932
Re	-1.140393	1.140789	-5.703932
Re	-3.421178	1.140789	-7.985501
Np	0.000000	4.563142	-4.563142
Np	2.280784	2.281574	-6.844711
O	3.607512	3.609369	-5.516916
O	-0.954066	5.516916	-8.172516
O	0.954066	3.609369	-8.172516
O	1.326728	5.890937	-5.890937
O	5.515634	5.516916	-5.516916
O	1.326728	7.798485	-7.798485
O	3.234850	7.798485	-5.890937
O	3.234850	5.890937	-7.798485
Re	-1.140397	3.422353	-7.985501
Re	5.701966	3.422353	-5.703932
Re	3.421181	5.703932	-5.703932
Re	1.140397	5.703932	-7.985501
Np	4.561575	-4.563142	0.000000
Np	6.842359	-6.844711	-2.281569
O	8.169087	-5.516916	-0.953774
O	3.607509	-3.609369	-3.609374
O	5.515641	-5.516916	-3.609374
O	5.888303	-3.235347	-1.327795
O	10.077209	-3.609369	-0.953774
O	5.888303	-1.327800	-3.235343
O	7.796425	-1.327800	-1.327795
O	7.796425	-3.235347	-3.235343
Re	3.421178	-5.703932	-3.422358
Re	10.263540	-5.703932	-1.140789
Re	7.982756	-3.422353	-1.140789
Re	5.701972	-3.422353	-3.422358
Np	9.123149	0.000000	0.000000
Np	11.403934	-2.281569	-2.281569
O	12.730662	-0.953774	-0.953774
O	8.169083	0.953774	-3.609374
O	10.077215	-0.953774	-3.609374
O	10.449878	1.327795	-1.327795
O	14.638784	0.953774	-0.953774
O	10.449878	3.235343	-3.235343
O	12.358000	3.235343	-1.327795
O	12.358000	1.327795	-3.235343
Re	7.982752	-1.140789	-3.422358
Re	14.825115	-1.140789	-1.140789
Re	12.544331	1.140789	-1.140789
Re	10.263547	1.140789	-3.422358
Np	0.000000	-4.563142	-4.563142
Np	2.280784	-6.844711	-6.844711
O	3.607512	-5.516916	-5.516916
O	-0.954066	-3.609369	-8.172516
O	0.954066	-5.516916	-8.172516
O	1.326728	-3.235347	-5.890937
O	5.515634	-3.609369	-5.516916
O	1.326728	-1.327800	-7.798485
O	3.234850	-1.327800	-5.890937
O	3.234850	-3.235347	-7.798485
Re	-1.140397	-5.703932	-7.985501
Re	5.701966	-5.703932	-5.703932
Re	3.421181	-3.422353	-5.703932
Re	1.140397	-3.422353	-7.985501
Np	4.561575	0.000000	-4.563142
Np	6.842359	-2.281569	-6.844711
O	8.169087	-0.953774	-5.516916
O	3.607509	0.953774	-8.172516
O	5.515641	-0.953774	-8.172516
O	5.888303	1.327795	-5.890937
O	10.077209	0.953774	-5.516916
O	5.888303	3.235343	-7.798485
O	7.796425	3.235343	-5.890937
O	7.796425	1.327795	-7.798485
Re	3.421178	-1.140789	-7.985501
Re	10.263540	-1.140789	-5.703932
Re	7.982756	1.140789	-5.703932
Re	5.701972	1.140789	-7.985501
