40

Mn	1.952776	1.952776	1.952776
O	0.000000	1.952776	1.952776
O	1.952776	0.000000	1.952776
O	1.952776	1.952776	0.000000
Sb	0.000000	0.000000	0.000000
Mn	1.952776	1.952776	5.858328
O	0.000000	1.952776	5.858328
O	1.952776	0.000000	5.858328
O	1.952776	1.952776	3.905552
Sb	0.000000	0.000000	3.905552
Mn	1.952776	5.858328	1.952776
O	0.000000	5.858328	1.952776
O	1.952776	3.905552	1.952776
O	1.952776	5.858328	0.000000
Sb	0.000000	3.905552	0.000000
Mn	1.952776	5.858328	5.858328
O	0.000000	5.858328	5.858328
O	1.952776	3.905552	5.858328
O	1.952776	5.858328	3.905552
Sb	0.000000	3.905552	3.905552
Mn	5.858328	1.952776	1.952776
O	3.905552	1.952776	1.952776
O	5.858328	0.000000	1.952776
O	5.858328	1.952776	0.000000
Sb	3.905552	0.000000	0.000000
Mn	5.858328	1.952776	5.858328
O	3.905552	1.952776	5.858328
O	5.858328	0.000000	5.858328
O	5.858328	1.952776	3.905552
Sb	3.905552	0.000000	3.905552
Mn	5.858328	5.858328	1.952776
O	3.905552	5.858328	1.952776
O	5.858328	3.905552	1.952776
O	5.858328	5.858328	0.000000
Sb	3.905552	3.905552	0.000000
Mn	5.858328	5.858328	5.858328
O	3.905552	5.858328	5.858328
O	5.858328	3.905552	5.858328
O	5.858328	5.858328	3.905552
Sb	3.905552	3.905552	3.905552
