40

O	1.914481	1.914481	0.000000
O	0.000000	1.914481	1.914481
O	1.914481	0.000000	1.914481
Th	0.000000	0.000000	0.000000
Zn	1.914481	1.914481	1.914481
O	1.914481	1.914481	3.828962
O	0.000000	1.914481	5.743443
O	1.914481	0.000000	5.743443
Th	0.000000	0.000000	3.828962
Zn	1.914481	1.914481	5.743443
O	1.914481	5.743443	0.000000
O	0.000000	5.743443	1.914481
O	1.914481	3.828962	1.914481
Th	0.000000	3.828962	0.000000
Zn	1.914481	5.743443	1.914481
O	1.914481	5.743443	3.828962
O	0.000000	5.743443	5.743443
O	1.914481	3.828962	5.743443
Th	0.000000	3.828962	3.828962
Zn	1.914481	5.743443	5.743443
O	5.743443	1.914481	0.000000
O	3.828962	1.914481	1.914481
O	5.743443	0.000000	1.914481
Th	3.828962	0.000000	0.000000
Zn	5.743443	1.914481	1.914481
O	5.743443	1.914481	3.828962
O	3.828962	1.914481	5.743443
O	5.743443	0.000000	5.743443
Th	3.828962	0.000000	3.828962
Zn	5.743443	1.914481	5.743443
O	5.743443	5.743443	0.000000
O	3.828962	5.743443	1.914481
O	5.743443	3.828962	1.914481
Th	3.828962	3.828962	0.000000
Zn	5.743443	5.743443	1.914481
O	5.743443	5.743443	3.828962
O	3.828962	5.743443	5.743443
O	5.743443	3.828962	5.743443
Th	3.828962	3.828962	3.828962
Zn	5.743443	5.743443	5.743443
