40

Ag	0.000000	0.000000	0.000000
O	2.021310	0.000000	2.021310
O	0.000000	2.021310	2.021310
O	2.021310	2.021310	0.000000
Sn_d	2.021310	2.021310	2.021310
Ag	0.000000	0.000000	4.042638
O	2.021310	0.000000	6.063948
O	0.000000	2.021310	6.063948
O	2.021310	2.021310	4.042638
Sn_d	2.021310	2.021310	6.063948
Ag	0.000000	4.042638	0.000000
O	2.021310	4.042638	2.021310
O	0.000000	6.063948	2.021310
O	2.021310	6.063948	0.000000
Sn_d	2.021310	6.063948	2.021310
Ag	0.000000	4.042638	4.042638
O	2.021310	4.042638	6.063948
O	0.000000	6.063948	6.063948
O	2.021310	6.063948	4.042638
Sn_d	2.021310	6.063948	6.063948
Ag	4.042638	0.000000	0.000000
O	6.063948	0.000000	2.021310
O	4.042638	2.021310	2.021310
O	6.063948	2.021310	0.000000
Sn_d	6.063948	2.021310	2.021310
Ag	4.042638	0.000000	4.042638
O	6.063948	0.000000	6.063948
O	4.042638	2.021310	6.063948
O	6.063948	2.021310	4.042638
Sn_d	6.063948	2.021310	6.063948
Ag	4.042638	4.042638	0.000000
O	6.063948	4.042638	2.021310
O	4.042638	6.063948	2.021310
O	6.063948	6.063948	0.000000
Sn_d	6.063948	6.063948	2.021310
Ag	4.042638	4.042638	4.042638
O	6.063948	4.042638	6.063948
O	4.042638	6.063948	6.063948
O	6.063948	6.063948	4.042638
Sn_d	6.063948	6.063948	6.063948
