40

Ag	2.020250	2.020250	2.020250
O	2.020250	2.020250	0.000000
O	0.000000	2.020250	2.020250
O	2.020250	0.000000	2.020250
Sn_d	0.000000	0.000000	0.000000
Ag	2.020250	2.020250	6.060750
O	2.020250	2.020250	4.040500
O	0.000000	2.020250	6.060750
O	2.020250	0.000000	6.060750
Sn_d	0.000000	0.000000	4.040500
Ag	2.020250	6.060750	2.020250
O	2.020250	6.060750	0.000000
O	0.000000	6.060750	2.020250
O	2.020250	4.040500	2.020250
Sn_d	0.000000	4.040500	0.000000
Ag	2.020250	6.060750	6.060750
O	2.020250	6.060750	4.040500
O	0.000000	6.060750	6.060750
O	2.020250	4.040500	6.060750
Sn_d	0.000000	4.040500	4.040500
Ag	6.060750	2.020250	2.020250
O	6.060750	2.020250	0.000000
O	4.040500	2.020250	2.020250
O	6.060750	0.000000	2.020250
Sn_d	4.040500	0.000000	0.000000
Ag	6.060750	2.020250	6.060750
O	6.060750	2.020250	4.040500
O	4.040500	2.020250	6.060750
O	6.060750	0.000000	6.060750
Sn_d	4.040500	0.000000	4.040500
Ag	6.060750	6.060750	2.020250
O	6.060750	6.060750	0.000000
O	4.040500	6.060750	2.020250
O	6.060750	4.040500	2.020250
Sn_d	4.040500	4.040500	0.000000
Ag	6.060750	6.060750	6.060750
O	6.060750	6.060750	4.040500
O	4.040500	6.060750	6.060750
O	6.060750	4.040500	6.060750
Sn_d	4.040500	4.040500	4.040500
