40

Ag	0.000000	0.000000	0.000000
O	0.000000	2.078098	2.078098
O	2.078098	0.000000	2.078098
O	2.078098	2.078098	0.000000
Sn	2.078098	2.078098	2.078098
Ag	0.000000	0.000000	4.156196
O	0.000000	2.078098	6.234294
O	2.078098	0.000000	6.234294
O	2.078098	2.078098	4.156196
Sn	2.078098	2.078098	6.234294
Ag	0.000000	4.156196	0.000000
O	0.000000	6.234294	2.078098
O	2.078098	4.156196	2.078098
O	2.078098	6.234294	0.000000
Sn	2.078098	6.234294	2.078098
Ag	0.000000	4.156196	4.156196
O	0.000000	6.234294	6.234294
O	2.078098	4.156196	6.234294
O	2.078098	6.234294	4.156196
Sn	2.078098	6.234294	6.234294
Ag	4.156196	0.000000	0.000000
O	4.156196	2.078098	2.078098
O	6.234294	0.000000	2.078098
O	6.234294	2.078098	0.000000
Sn	6.234294	2.078098	2.078098
Ag	4.156196	0.000000	4.156196
O	4.156196	2.078098	6.234294
O	6.234294	0.000000	6.234294
O	6.234294	2.078098	4.156196
Sn	6.234294	2.078098	6.234294
Ag	4.156196	4.156196	0.000000
O	4.156196	6.234294	2.078098
O	6.234294	4.156196	2.078098
O	6.234294	6.234294	0.000000
Sn	6.234294	6.234294	2.078098
Ag	4.156196	4.156196	4.156196
O	4.156196	6.234294	6.234294
O	6.234294	4.156196	6.234294
O	6.234294	6.234294	4.156196
Sn	6.234294	6.234294	6.234294
