40

I	0.000000	0.000000	0.000000
Ir	2.008827	2.008827	2.008827
O	0.000000	2.008827	2.008827
O	2.008827	0.000000	2.008827
O	2.008827	2.008827	0.000000
I	0.000000	0.000000	4.017654
Ir	2.008827	2.008827	6.026481
O	0.000000	2.008827	6.026481
O	2.008827	0.000000	6.026481
O	2.008827	2.008827	4.017654
I	0.000000	4.017654	0.000000
Ir	2.008827	6.026481	2.008827
O	0.000000	6.026481	2.008827
O	2.008827	4.017654	2.008827
O	2.008827	6.026481	0.000000
I	0.000000	4.017654	4.017654
Ir	2.008827	6.026481	6.026481
O	0.000000	6.026481	6.026481
O	2.008827	4.017654	6.026481
O	2.008827	6.026481	4.017654
I	4.017654	0.000000	0.000000
Ir	6.026481	2.008827	2.008827
O	4.017654	2.008827	2.008827
O	6.026481	0.000000	2.008827
O	6.026481	2.008827	0.000000
I	4.017654	0.000000	4.017654
Ir	6.026481	2.008827	6.026481
O	4.017654	2.008827	6.026481
O	6.026481	0.000000	6.026481
O	6.026481	2.008827	4.017654
I	4.017654	4.017654	0.000000
Ir	6.026481	6.026481	2.008827
O	4.017654	6.026481	2.008827
O	6.026481	4.017654	2.008827
O	6.026481	6.026481	0.000000
I	4.017654	4.017654	4.017654
Ir	6.026481	6.026481	6.026481
O	4.017654	6.026481	6.026481
O	6.026481	4.017654	6.026481
O	6.026481	6.026481	4.017654
