112

Ac	0.000000	0.000000	0.000000
Ac	2.749223	-2.749408	-2.749408
O	1.272948	1.273328	-1.273329
O	-1.476285	1.476080	-4.022737
O	4.022172	-1.476080	-1.476080
O	1.476285	-1.476080	-4.022737
O	1.272948	4.225498	-4.225498
O	4.225508	1.273328	-4.225498
O	4.225508	4.225498	-1.273329
O	6.974731	1.476080	-1.476080
Rb	-1.374612	-1.374709	-4.124117
Rb	6.873058	-1.374709	-1.374709
Rb	1.374612	1.374709	-4.124117
Rb	4.123835	1.374709	-1.374709
Ac	5.498449	5.498826	0.000000
Ac	8.247672	2.749418	-2.749408
O	6.771397	6.772154	-1.273329
O	4.022164	6.974906	-4.022737
O	9.520621	4.022746	-1.476080
O	6.974734	4.022746	-4.022737
O	6.771397	9.724324	-4.225498
O	9.723957	6.772154	-4.225498
O	9.723957	9.724324	-1.273329
O	12.473180	6.974906	-1.476080
Rb	4.123837	4.124117	-4.124117
Rb	12.371507	4.124117	-1.374709
Rb	6.873061	6.873535	-4.124117
Rb	9.622284	6.873535	-1.374709
Ac	-5.498449	0.000000	-5.498826
Ac	-2.749226	-2.749408	-8.248234
O	-4.225501	1.273328	-6.772154
O	-6.974734	1.476080	-9.521563
O	-1.476278	-1.476080	-6.974906
O	-4.022164	-1.476080	-9.521563
O	-4.225501	4.225498	-9.724324
O	-1.272941	1.273328	-9.724324
O	-1.272941	4.225498	-6.772154
O	1.476282	1.476080	-6.974906
Rb	-6.873061	-1.374709	-9.622943
Rb	1.374609	-1.374709	-6.873535
Rb	-4.123837	1.374709	-9.622943
Rb	-1.374614	1.374709	-6.873535
Ac	0.000000	5.498826	-5.498826
Ac	2.749223	2.749418	-8.248234
O	1.272948	6.772154	-6.772154
O	-1.476285	6.974906	-9.521563
O	4.022172	4.022746	-6.974906
O	1.476285	4.022746	-9.521563
O	1.272948	9.724324	-9.724324
O	4.225508	6.772154	-9.724324
O	4.225508	9.724324	-6.772154
O	6.974731	6.974906	-6.974906
Rb	-1.374612	4.124117	-9.622943
Rb	6.873058	4.124117	-6.873535
Rb	1.374612	6.873535	-9.622943
Rb	4.123835	6.873535	-6.873535
Ac	5.498449	-5.498826	0.000000
Ac	8.247672	-8.248234	-2.749408
O	6.771397	-4.225497	-1.273329
O	4.022164	-4.022746	-4.022737
O	9.520621	-6.974906	-1.476080
O	6.974734	-6.974906	-4.022737
O	6.771397	-1.273328	-4.225498
O	9.723957	-4.225497	-4.225498
O	9.723957	-1.273328	-1.273329
O	12.473180	-4.022746	-1.476080
Rb	4.123837	-6.873535	-4.124117
Rb	12.371507	-6.873535	-1.374709
Rb	6.873061	-4.124117	-4.124117
Rb	9.622284	-4.124117	-1.374709
Ac	10.996898	0.000000	0.000000
Ac	13.746121	-2.749408	-2.749408
O	12.269847	1.273328	-1.273329
O	9.520614	1.476080	-4.022737
O	15.019070	-1.476080	-1.476080
O	12.473183	-1.476080	-4.022737
O	12.269847	4.225498	-4.225498
O	15.222406	1.273328	-4.225498
O	15.222406	4.225498	-1.273329
O	17.971629	1.476080	-1.476080
Rb	9.622287	-1.374709	-4.124117
Rb	17.869956	-1.374709	-1.374709
Rb	12.371510	1.374709	-4.124117
Rb	15.120733	1.374709	-1.374709
Ac	0.000000	-5.498826	-5.498826
Ac	2.749223	-8.248234	-8.248234
O	1.272948	-4.225497	-6.772154
O	-1.476285	-4.022746	-9.521563
O	4.022172	-6.974906	-6.974906
O	1.476285	-6.974906	-9.521563
O	1.272948	-1.273328	-9.724324
O	4.225508	-4.225497	-9.724324
O	4.225508	-1.273328	-6.772154
O	6.974731	-4.022746	-6.974906
Rb	-1.374612	-6.873535	-9.622943
Rb	6.873058	-6.873535	-6.873535
Rb	1.374612	-4.124117	-9.622943
Rb	4.123835	-4.124117	-6.873535
Ac	5.498449	0.000000	-5.498826
Ac	8.247672	-2.749408	-8.248234
O	6.771397	1.273328	-6.772154
O	4.022164	1.476080	-9.521563
O	9.520621	-1.476080	-6.974906
O	6.974734	-1.476080	-9.521563
O	6.771397	4.225498	-9.724324
O	9.723957	1.273328	-9.724324
O	9.723957	4.225498	-6.772154
O	12.473180	1.476080	-6.974906
Rb	4.123837	-1.374709	-9.622943
Rb	12.371507	-1.374709	-6.873535
Rb	6.873061	1.374709	-9.622943
Rb	9.622284	1.374709	-6.873535
