40

Ce	0.000000	0.000000	0.000000
O	1.993540	0.000000	1.993540
O	0.000000	1.993540	1.993540
O	1.993540	1.993540	0.000000
Os	1.993540	1.993540	1.993540
Ce	0.000000	0.000000	3.987083
O	1.993540	0.000000	5.980623
O	0.000000	1.993540	5.980623
O	1.993540	1.993540	3.987083
Os	1.993540	1.993540	5.980623
Ce	0.000000	3.987083	0.000000
O	1.993540	3.987083	1.993540
O	0.000000	5.980623	1.993540
O	1.993540	5.980623	0.000000
Os	1.993540	5.980623	1.993540
Ce	0.000000	3.987083	3.987083
O	1.993540	3.987083	5.980623
O	0.000000	5.980623	5.980623
O	1.993540	5.980623	3.987083
Os	1.993540	5.980623	5.980623
Ce	3.987083	0.000000	0.000000
O	5.980623	0.000000	1.993540
O	3.987083	1.993540	1.993540
O	5.980623	1.993540	0.000000
Os	5.980623	1.993540	1.993540
Ce	3.987083	0.000000	3.987083
O	5.980623	0.000000	5.980623
O	3.987083	1.993540	5.980623
O	5.980623	1.993540	3.987083
Os	5.980623	1.993540	5.980623
Ce	3.987083	3.987083	0.000000
O	5.980623	3.987083	1.993540
O	3.987083	5.980623	1.993540
O	5.980623	5.980623	0.000000
Os	5.980623	5.980623	1.993540
Ce	3.987083	3.987083	3.987083
O	5.980623	3.987083	5.980623
O	3.987083	5.980623	5.980623
O	5.980623	5.980623	3.987083
Os	5.980623	5.980623	5.980623
