112

Ac	0.000000	0.000000	0.000000
Ac	2.655312	-2.655731	-2.655731
K	-1.327656	-1.327866	-3.983597
K	1.327656	1.327866	-3.983597
K	6.638291	-1.327866	-1.327866
K	3.982978	1.327866	-1.327866
O	1.270138	1.270808	-1.270808
O	-1.385184	1.384923	-3.926540
O	3.925450	-1.384923	-1.384923
O	1.385184	-1.384923	-3.926540
O	1.270138	4.040654	-4.040654
O	4.040497	4.040654	-1.270808
O	4.040497	1.270808	-4.040654
O	6.695819	1.384923	-1.384923
Ac	5.310634	5.311463	0.000000
Ac	7.965947	2.655731	-2.655731
K	3.982978	3.983597	-3.983597
K	6.638290	6.639328	-3.983597
K	11.948925	3.983597	-1.327866
K	9.293613	6.639328	-1.327866
O	6.580772	6.582271	-1.270808
O	3.925450	6.696386	-3.926540
O	9.236084	3.926540	-1.384923
O	6.695819	3.926540	-3.926540
O	6.580772	9.352117	-4.040654
O	9.351131	9.352117	-1.270808
O	9.351131	6.582271	-4.040654
O	12.006453	6.696386	-1.384923
Ac	-5.310634	0.000000	-5.311463
Ac	-2.655322	-2.655731	-7.967194
K	-6.638290	-1.327866	-9.295060
K	-3.982978	1.327866	-9.295060
K	1.327656	-1.327866	-6.639328
K	-1.327656	1.327866	-6.639328
O	-4.040497	1.270808	-6.582271
O	-6.695819	1.384923	-9.238003
O	-1.385184	-1.384923	-6.696386
O	-3.925450	-1.384923	-9.238003
O	-4.040497	4.040654	-9.352117
O	-1.270137	4.040654	-6.582271
O	-1.270137	1.270808	-9.352117
O	1.385185	1.384923	-6.696386
Ac	0.000000	5.311463	-5.311463
Ac	2.655312	2.655731	-7.967194
K	-1.327656	3.983597	-9.295060
K	1.327656	6.639328	-9.295060
K	6.638291	3.983597	-6.639328
K	3.982978	6.639328	-6.639328
O	1.270138	6.582271	-6.582271
O	-1.385184	6.696386	-9.238003
O	3.925450	3.926540	-6.696386
O	1.385184	3.926540	-9.238003
O	1.270138	9.352117	-9.352117
O	4.040497	9.352117	-6.582271
O	4.040497	6.582271	-9.352117
O	6.695819	6.696386	-6.696386
Ac	5.310634	-5.311463	0.000000
Ac	7.965947	-7.967194	-2.655731
K	3.982978	-6.639328	-3.983597
K	6.638290	-3.983597	-3.983597
K	11.948925	-6.639328	-1.327866
K	9.293613	-3.983597	-1.327866
O	6.580772	-4.040654	-1.270808
O	3.925450	-3.926540	-3.926540
O	9.236084	-6.696386	-1.384923
O	6.695819	-6.696386	-3.926540
O	6.580772	-1.270809	-4.040654
O	9.351131	-1.270809	-1.270808
O	9.351131	-4.040654	-4.040654
O	12.006453	-3.926540	-1.384923
Ac	10.621268	0.000000	0.000000
Ac	13.276581	-2.655731	-2.655731
K	9.293612	-1.327866	-3.983597
K	11.948925	1.327866	-3.983597
K	17.259559	-1.327866	-1.327866
K	14.604247	1.327866	-1.327866
O	11.891406	1.270808	-1.270808
O	9.236084	1.384923	-3.926540
O	14.546718	-1.384923	-1.384923
O	12.006453	-1.384923	-3.926540
O	11.891406	4.040654	-4.040654
O	14.661765	4.040654	-1.270808
O	14.661765	1.270808	-4.040654
O	17.317087	1.384923	-1.384923
Ac	0.000000	-5.311463	-5.311463
Ac	2.655312	-7.967194	-7.967194
K	-1.327656	-6.639328	-9.295060
K	1.327656	-3.983597	-9.295060
K	6.638291	-6.639328	-6.639328
K	3.982978	-3.983597	-6.639328
O	1.270138	-4.040654	-6.582271
O	-1.385184	-3.926540	-9.238003
O	3.925450	-6.696386	-6.696386
O	1.385184	-6.696386	-9.238003
O	1.270138	-1.270809	-9.352117
O	4.040497	-1.270809	-6.582271
O	4.040497	-4.040654	-9.352117
O	6.695819	-3.926540	-6.696386
Ac	5.310634	0.000000	-5.311463
Ac	7.965947	-2.655731	-7.967194
K	3.982978	-1.327866	-9.295060
K	6.638290	1.327866	-9.295060
K	11.948925	-1.327866	-6.639328
K	9.293613	1.327866	-6.639328
O	6.580772	1.270808	-6.582271
O	3.925450	1.384923	-9.238003
O	9.236084	-1.384923	-6.696386
O	6.695819	-1.384923	-9.238003
O	6.580772	4.040654	-9.352117
O	9.351131	4.040654	-6.582271
O	9.351131	1.270808	-9.352117
O	12.006453	1.384923	-6.696386
