112

Ac	0.000000	0.000000	0.000000
Ac	2.638252	-2.638680	-2.638680
K	-1.319131	-1.319345	-3.958025
K	6.595645	-1.319345	-1.319345
K	1.319131	1.319345	-3.958025
K	3.957393	1.319345	-1.319345
O	1.262221	1.262878	-1.262878
O	3.900473	-1.375802	-1.375802
O	-1.376040	1.375802	-3.901558
O	1.376040	-1.375802	-3.901558
O	1.262221	4.014482	-4.014482
O	4.014302	4.014482	-1.262878
O	4.014302	1.262878	-4.014482
O	6.652564	1.375802	-1.375802
Ac	5.276518	5.277363	0.000000
Ac	7.914770	2.638683	-2.638680
K	3.957387	3.958018	-3.958025
K	11.872163	3.958018	-1.319345
K	6.595649	6.596708	-3.958025
K	9.233911	6.596708	-1.319345
O	6.538739	6.540241	-1.262878
O	9.176991	3.901561	-1.375802
O	3.900477	6.653165	-3.901558
O	6.652558	3.901561	-3.901558
O	6.538739	9.291845	-4.014482
O	9.290820	9.291845	-1.262878
O	9.290820	6.540241	-4.014482
O	11.929082	6.653165	-1.375802
Ac	-5.276518	0.000000	-5.277363
Ac	-2.638266	-2.638680	-7.916043
K	-6.595649	-1.319345	-9.235388
K	1.319127	-1.319345	-6.596708
K	-3.957387	1.319345	-9.235388
K	-1.319125	1.319345	-6.596708
O	-4.014297	1.262878	-6.540241
O	-1.376045	-1.375802	-6.653165
O	-6.652558	1.375802	-9.178921
O	-3.900477	-1.375802	-9.178921
O	-4.014297	4.014482	-9.291845
O	-1.262216	4.014482	-6.540241
O	-1.262216	1.262878	-9.291845
O	1.376046	1.375802	-6.653165
Ac	0.000000	5.277363	-5.277363
Ac	2.638252	2.638683	-7.916043
K	-1.319131	3.958018	-9.235388
K	6.595645	3.958018	-6.596708
K	1.319131	6.596708	-9.235388
K	3.957393	6.596708	-6.596708
O	1.262221	6.540241	-6.540241
O	3.900473	3.901561	-6.653165
O	-1.376040	6.653165	-9.178921
O	1.376040	3.901561	-9.178921
O	1.262221	9.291845	-9.291845
O	4.014302	9.291845	-6.540241
O	4.014302	6.540241	-9.291845
O	6.652564	6.653165	-6.653165
Ac	5.276518	-5.277363	0.000000
Ac	7.914770	-7.916043	-2.638680
K	3.957387	-6.596708	-3.958025
K	11.872163	-6.596708	-1.319345
K	6.595649	-3.958018	-3.958025
K	9.233911	-3.958018	-1.319345
O	6.538739	-4.014485	-1.262878
O	9.176991	-6.653165	-1.375802
O	3.900477	-3.901561	-3.901558
O	6.652558	-6.653165	-3.901558
O	6.538739	-1.262881	-4.014482
O	9.290820	-1.262881	-1.262878
O	9.290820	-4.014485	-4.014482
O	11.929082	-3.901561	-1.375802
Ac	10.553036	0.000000	0.000000
Ac	13.191288	-2.638680	-2.638680
K	9.233905	-1.319345	-3.958025
K	17.148681	-1.319345	-1.319345
K	11.872167	1.319345	-3.958025
K	14.510429	1.319345	-1.319345
O	11.815257	1.262878	-1.262878
O	14.453509	-1.375802	-1.375802
O	9.176995	1.375802	-3.901558
O	11.929076	-1.375802	-3.901558
O	11.815257	4.014482	-4.014482
O	14.567338	4.014482	-1.262878
O	14.567338	1.262878	-4.014482
O	17.205600	1.375802	-1.375802
Ac	0.000000	-5.277363	-5.277363
Ac	2.638252	-7.916043	-7.916043
K	-1.319131	-6.596708	-9.235388
K	6.595645	-6.596708	-6.596708
K	1.319131	-3.958018	-9.235388
K	3.957393	-3.958018	-6.596708
O	1.262221	-4.014485	-6.540241
O	3.900473	-6.653165	-6.653165
O	-1.376040	-3.901561	-9.178921
O	1.376040	-6.653165	-9.178921
O	1.262221	-1.262881	-9.291845
O	4.014302	-1.262881	-6.540241
O	4.014302	-4.014485	-9.291845
O	6.652564	-3.901561	-6.653165
Ac	5.276518	0.000000	-5.277363
Ac	7.914770	-2.638680	-7.916043
K	3.957387	-1.319345	-9.235388
K	11.872163	-1.319345	-6.596708
K	6.595649	1.319345	-9.235388
K	9.233911	1.319345	-6.596708
O	6.538739	1.262878	-6.540241
O	9.176991	-1.375802	-6.653165
O	3.900477	1.375802	-9.178921
O	6.652558	-1.375802	-9.178921
O	6.538739	4.014482	-9.291845
O	9.290820	4.014482	-6.540241
O	9.290820	1.262878	-9.291845
O	11.929082	1.375802	-6.653165
