40

B	1.680232	1.680232	1.680232
Ga	0.000000	0.000000	0.000000
O	0.000000	1.680232	1.680232
O	1.680232	0.000000	1.680232
O	1.680232	1.680232	0.000000
B	1.680232	1.680232	5.040696
Ga	0.000000	0.000000	3.360464
O	0.000000	1.680232	5.040696
O	1.680232	0.000000	5.040696
O	1.680232	1.680232	3.360464
B	1.680232	5.040696	1.680232
Ga	0.000000	3.360464	0.000000
O	0.000000	5.040696	1.680232
O	1.680232	3.360464	1.680232
O	1.680232	5.040696	0.000000
B	1.680232	5.040696	5.040696
Ga	0.000000	3.360464	3.360464
O	0.000000	5.040696	5.040696
O	1.680232	3.360464	5.040696
O	1.680232	5.040696	3.360464
B	5.040696	1.680232	1.680232
Ga	3.360464	0.000000	0.000000
O	3.360464	1.680232	1.680232
O	5.040696	0.000000	1.680232
O	5.040696	1.680232	0.000000
B	5.040696	1.680232	5.040696
Ga	3.360464	0.000000	3.360464
O	3.360464	1.680232	5.040696
O	5.040696	0.000000	5.040696
O	5.040696	1.680232	3.360464
B	5.040696	5.040696	1.680232
Ga	3.360464	3.360464	0.000000
O	3.360464	5.040696	1.680232
O	5.040696	3.360464	1.680232
O	5.040696	5.040696	0.000000
B	5.040696	5.040696	5.040696
Ga	3.360464	3.360464	3.360464
O	3.360464	5.040696	5.040696
O	5.040696	3.360464	5.040696
O	5.040696	5.040696	3.360464
