40

B	0.000000	0.000000	0.000000
Np	2.122549	2.122549	2.122549
O	2.122549	2.122549	0.000000
O	2.122549	0.000000	2.122549
O	0.000000	2.122549	2.122549
B	0.000000	0.000000	4.245100
Np	2.122549	2.122549	6.367649
O	2.122549	2.122549	4.245100
O	2.122549	0.000000	6.367649
O	0.000000	2.122549	6.367649
B	0.000000	4.245100	0.000000
Np	2.122549	6.367649	2.122549
O	2.122549	6.367649	0.000000
O	2.122549	4.245100	2.122549
O	0.000000	6.367649	2.122549
B	0.000000	4.245100	4.245100
Np	2.122549	6.367649	6.367649
O	2.122549	6.367649	4.245100
O	2.122549	4.245100	6.367649
O	0.000000	6.367649	6.367649
B	4.245100	0.000000	0.000000
Np	6.367649	2.122549	2.122549
O	6.367649	2.122549	0.000000
O	6.367649	0.000000	2.122549
O	4.245100	2.122549	2.122549
B	4.245100	0.000000	4.245100
Np	6.367649	2.122549	6.367649
O	6.367649	2.122549	4.245100
O	6.367649	0.000000	6.367649
O	4.245100	2.122549	6.367649
B	4.245100	4.245100	0.000000
Np	6.367649	6.367649	2.122549
O	6.367649	6.367649	0.000000
O	6.367649	4.245100	2.122549
O	4.245100	6.367649	2.122549
B	4.245100	4.245100	4.245100
Np	6.367649	6.367649	6.367649
O	6.367649	6.367649	4.245100
O	6.367649	4.245100	6.367649
O	4.245100	6.367649	6.367649
