40

O	0.000000	1.989661	1.989661
O	1.989661	0.000000	1.989661
O	1.989661	1.989661	0.000000
Rh	1.989661	1.989661	1.989661
Te	0.000000	0.000000	0.000000
O	0.000000	1.989661	5.968984
O	1.989661	0.000000	5.968984
O	1.989661	1.989661	3.979323
Rh	1.989661	1.989661	5.968984
Te	0.000000	0.000000	3.979323
O	0.000000	5.968984	1.989661
O	1.989661	3.979323	1.989661
O	1.989661	5.968984	0.000000
Rh	1.989661	5.968984	1.989661
Te	0.000000	3.979323	0.000000
O	0.000000	5.968984	5.968984
O	1.989661	3.979323	5.968984
O	1.989661	5.968984	3.979323
Rh	1.989661	5.968984	5.968984
Te	0.000000	3.979323	3.979323
O	3.979323	1.989661	1.989661
O	5.968984	0.000000	1.989661
O	5.968984	1.989661	0.000000
Rh	5.968984	1.989661	1.989661
Te	3.979323	0.000000	0.000000
O	3.979323	1.989661	5.968984
O	5.968984	0.000000	5.968984
O	5.968984	1.989661	3.979323
Rh	5.968984	1.989661	5.968984
Te	3.979323	0.000000	3.979323
O	3.979323	5.968984	1.989661
O	5.968984	3.979323	1.989661
O	5.968984	5.968984	0.000000
Rh	5.968984	5.968984	1.989661
Te	3.979323	3.979323	0.000000
O	3.979323	5.968984	5.968984
O	5.968984	3.979323	5.968984
O	5.968984	5.968984	3.979323
Rh	5.968984	5.968984	5.968984
Te	3.979323	3.979323	3.979323
