40

B	1.739700	1.739700	1.739700
Ca	0.000000	0.000000	0.000000
O	0.000000	1.739700	1.739700
O	1.739700	0.000000	1.739700
O	1.739700	1.739700	0.000000
B	1.739700	1.739700	5.219099
Ca	0.000000	0.000000	3.479399
O	0.000000	1.739700	5.219099
O	1.739700	0.000000	5.219099
O	1.739700	1.739700	3.479399
B	1.739700	5.219099	1.739700
Ca	0.000000	3.479399	0.000000
O	0.000000	5.219099	1.739700
O	1.739700	3.479399	1.739700
O	1.739700	5.219099	0.000000
B	1.739700	5.219099	5.219099
Ca	0.000000	3.479399	3.479399
O	0.000000	5.219099	5.219099
O	1.739700	3.479399	5.219099
O	1.739700	5.219099	3.479399
B	5.219099	1.739700	1.739700
Ca	3.479399	0.000000	0.000000
O	3.479399	1.739700	1.739700
O	5.219099	0.000000	1.739700
O	5.219099	1.739700	0.000000
B	5.219099	1.739700	5.219099
Ca	3.479399	0.000000	3.479399
O	3.479399	1.739700	5.219099
O	5.219099	0.000000	5.219099
O	5.219099	1.739700	3.479399
B	5.219099	5.219099	1.739700
Ca	3.479399	3.479399	0.000000
O	3.479399	5.219099	1.739700
O	5.219099	3.479399	1.739700
O	5.219099	5.219099	0.000000
B	5.219099	5.219099	5.219099
Ca	3.479399	3.479399	3.479399
O	3.479399	5.219099	5.219099
O	5.219099	3.479399	5.219099
O	5.219099	5.219099	3.479399
