40

B	1.741364	1.741364	1.741364
Ca	0.000000	0.000000	0.000000
O	0.000000	1.741364	1.741364
O	1.741364	0.000000	1.741364
O	1.741364	1.741364	0.000000
B	1.741364	1.741364	5.224091
Ca	0.000000	0.000000	3.482728
O	0.000000	1.741364	5.224091
O	1.741364	0.000000	5.224091
O	1.741364	1.741364	3.482728
B	1.741364	5.224091	1.741364
Ca	0.000000	3.482728	0.000000
O	0.000000	5.224091	1.741364
O	1.741364	3.482728	1.741364
O	1.741364	5.224091	0.000000
B	1.741364	5.224091	5.224091
Ca	0.000000	3.482728	3.482728
O	0.000000	5.224091	5.224091
O	1.741364	3.482728	5.224091
O	1.741364	5.224091	3.482728
B	5.224091	1.741364	1.741364
Ca	3.482728	0.000000	0.000000
O	3.482728	1.741364	1.741364
O	5.224091	0.000000	1.741364
O	5.224091	1.741364	0.000000
B	5.224091	1.741364	5.224091
Ca	3.482728	0.000000	3.482728
O	3.482728	1.741364	5.224091
O	5.224091	0.000000	5.224091
O	5.224091	1.741364	3.482728
B	5.224091	5.224091	1.741364
Ca	3.482728	3.482728	0.000000
O	3.482728	5.224091	1.741364
O	5.224091	3.482728	1.741364
O	5.224091	5.224091	0.000000
B	5.224091	5.224091	5.224091
Ca	3.482728	3.482728	3.482728
O	3.482728	5.224091	5.224091
O	5.224091	3.482728	5.224091
O	5.224091	5.224091	3.482728
