40

Ce	2.309648	2.309648	2.309648
Li	0.000000	0.000000	0.000000
O	2.309648	2.309648	0.000000
O	2.309648	0.000000	2.309648
O	0.000000	2.309648	2.309648
Ce	2.309648	2.309648	6.928945
Li	0.000000	0.000000	4.619297
O	2.309648	2.309648	4.619297
O	2.309648	0.000000	6.928945
O	0.000000	2.309648	6.928945
Ce	2.309648	6.928945	2.309648
Li	0.000000	4.619297	0.000000
O	2.309648	6.928945	0.000000
O	2.309648	4.619297	2.309648
O	0.000000	6.928945	2.309648
Ce	2.309648	6.928945	6.928945
Li	0.000000	4.619297	4.619297
O	2.309648	6.928945	4.619297
O	2.309648	4.619297	6.928945
O	0.000000	6.928945	6.928945
Ce	6.928945	2.309648	2.309648
Li	4.619297	0.000000	0.000000
O	6.928945	2.309648	0.000000
O	6.928945	0.000000	2.309648
O	4.619297	2.309648	2.309648
Ce	6.928945	2.309648	6.928945
Li	4.619297	0.000000	4.619297
O	6.928945	2.309648	4.619297
O	6.928945	0.000000	6.928945
O	4.619297	2.309648	6.928945
Ce	6.928945	6.928945	2.309648
Li	4.619297	4.619297	0.000000
O	6.928945	6.928945	0.000000
O	6.928945	4.619297	2.309648
O	4.619297	6.928945	2.309648
Ce	6.928945	6.928945	6.928945
Li	4.619297	4.619297	4.619297
O	6.928945	6.928945	4.619297
O	6.928945	4.619297	6.928945
O	4.619297	6.928945	6.928945
