112

Li	0.000000	0.000000	0.000000
Li	2.084723	-2.085176	-2.085176
Mo	-1.042362	-1.042588	-3.127764
Mo	5.211798	-1.042588	-1.042588
Mo	1.042362	1.042588	-3.127764
Mo	3.127085	1.042588	-1.042588
O	-1.043332	1.043282	-3.127071
O	3.126114	-1.043282	-1.043282
O	1.043332	-1.043282	-3.127071
O	1.041391	1.041895	-1.041895
O	5.212769	1.043282	-1.043282
O	1.041391	3.128458	-3.128458
O	3.128056	3.128458	-1.041895
O	3.128056	1.041894	-3.128458
Li	4.169441	4.170351	0.000000
Li	6.254165	2.085175	-2.085176
Mo	3.127080	3.127763	-3.127764
Mo	9.381240	3.127763	-1.042588
Mo	5.211803	5.212939	-3.127764
Mo	7.296526	5.212939	-1.042588
O	3.126109	5.213632	-3.127071
O	7.295556	3.127069	-1.043282
O	5.212774	3.127069	-3.127071
O	5.210832	5.212245	-1.041895
O	9.382210	5.213632	-1.043282
O	5.210832	7.298808	-3.128458
O	7.297497	7.298808	-1.041895
O	7.297497	5.212245	-3.128458
Li	-4.169441	0.000000	-4.170351
Li	-2.084718	-2.085176	-6.255527
Mo	-5.211803	-1.042588	-7.298115
Mo	1.042357	-1.042588	-5.212939
Mo	-3.127080	1.042588	-7.298115
Mo	-1.042356	1.042588	-5.212939
O	-5.212774	1.043282	-7.297421
O	-1.043327	-1.043282	-5.213632
O	-3.126109	-1.043282	-7.297421
O	-3.128050	1.041895	-5.212245
O	1.043328	1.043282	-5.213632
O	-3.128050	3.128458	-7.298808
O	-1.041386	3.128458	-5.212245
O	-1.041386	1.041894	-7.298808
Li	0.000000	4.170351	-4.170351
Li	2.084723	2.085175	-6.255527
Mo	-1.042362	3.127763	-7.298115
Mo	5.211798	3.127763	-5.212939
Mo	1.042362	5.212939	-7.298115
Mo	3.127085	5.212939	-5.212939
O	-1.043332	5.213632	-7.297421
O	3.126114	3.127069	-5.213632
O	1.043332	3.127069	-7.297421
O	1.041391	5.212245	-5.212245
O	5.212769	5.213632	-5.213632
O	1.041391	7.298808	-7.298808
O	3.128056	7.298808	-5.212245
O	3.128056	5.212245	-7.298808
Li	4.169441	-4.170351	0.000000
Li	6.254165	-6.255527	-2.085176
Mo	3.127080	-5.212939	-3.127764
Mo	9.381240	-5.212939	-1.042588
Mo	5.211803	-3.127763	-3.127764
Mo	7.296526	-3.127763	-1.042588
O	3.126109	-3.127069	-3.127071
O	7.295556	-5.213632	-1.043282
O	5.212774	-5.213632	-3.127071
O	5.210832	-3.128456	-1.041895
O	9.382210	-3.127069	-1.043282
O	5.210832	-1.041893	-3.128458
O	7.297497	-1.041893	-1.041895
O	7.297497	-3.128456	-3.128458
Li	8.338883	0.000000	0.000000
Li	10.423606	-2.085176	-2.085176
Mo	7.296521	-1.042588	-3.127764
Mo	13.550681	-1.042588	-1.042588
Mo	9.381245	1.042588	-3.127764
Mo	11.465968	1.042588	-1.042588
O	7.295551	1.043282	-3.127071
O	11.464997	-1.043282	-1.043282
O	9.382215	-1.043282	-3.127071
O	9.380274	1.041895	-1.041895
O	13.551652	1.043282	-1.043282
O	9.380274	3.128458	-3.128458
O	11.466938	3.128458	-1.041895
O	11.466939	1.041894	-3.128458
Li	0.000000	-4.170351	-4.170351
Li	2.084723	-6.255527	-6.255527
Mo	-1.042362	-5.212939	-7.298115
Mo	5.211798	-5.212939	-5.212939
Mo	1.042362	-3.127763	-7.298115
Mo	3.127085	-3.127763	-5.212939
O	-1.043332	-3.127069	-7.297421
O	3.126114	-5.213632	-5.213632
O	1.043332	-5.213632	-7.297421
O	1.041391	-3.128456	-5.212245
O	5.212769	-3.127069	-5.213632
O	1.041391	-1.041893	-7.298808
O	3.128056	-1.041893	-5.212245
O	3.128056	-3.128456	-7.298808
Li	4.169441	0.000000	-4.170351
Li	6.254165	-2.085176	-6.255527
Mo	3.127080	-1.042588	-7.298115
Mo	9.381240	-1.042588	-5.212939
Mo	5.211803	1.042588	-7.298115
Mo	7.296526	1.042588	-5.212939
O	3.126109	1.043282	-7.297421
O	7.295556	-1.043282	-5.213632
O	5.212774	-1.043282	-7.297421
O	5.210832	1.041895	-5.212245
O	9.382210	1.043282	-5.213632
O	5.210832	3.128458	-7.298808
O	7.297497	3.128458	-5.212245
O	7.297497	1.041894	-7.298808
