40

Ag	1.997190	1.997190	1.997190
O	1.997190	1.997190	0.000000
O	0.000000	1.997190	1.997190
O	1.997190	0.000000	1.997190
Zr_sv	0.000000	0.000000	0.000000
Ag	1.997190	1.997190	5.991569
O	1.997190	1.997190	3.994379
O	0.000000	1.997190	5.991569
O	1.997190	0.000000	5.991569
Zr_sv	0.000000	0.000000	3.994379
Ag	1.997190	5.991569	1.997190
O	1.997190	5.991569	0.000000
O	0.000000	5.991569	1.997190
O	1.997190	3.994379	1.997190
Zr_sv	0.000000	3.994379	0.000000
Ag	1.997190	5.991569	5.991569
O	1.997190	5.991569	3.994379
O	0.000000	5.991569	5.991569
O	1.997190	3.994379	5.991569
Zr_sv	0.000000	3.994379	3.994379
Ag	5.991569	1.997190	1.997190
O	5.991569	1.997190	0.000000
O	3.994379	1.997190	1.997190
O	5.991569	0.000000	1.997190
Zr_sv	3.994379	0.000000	0.000000
Ag	5.991569	1.997190	5.991569
O	5.991569	1.997190	3.994379
O	3.994379	1.997190	5.991569
O	5.991569	0.000000	5.991569
Zr_sv	3.994379	0.000000	3.994379
Ag	5.991569	5.991569	1.997190
O	5.991569	5.991569	0.000000
O	3.994379	5.991569	1.997190
O	5.991569	3.994379	1.997190
Zr_sv	3.994379	3.994379	0.000000
Ag	5.991569	5.991569	5.991569
O	5.991569	5.991569	3.994379
O	3.994379	5.991569	5.991569
O	5.991569	3.994379	5.991569
Zr_sv	3.994379	3.994379	3.994379
