40

K	2.214393	2.214393	2.214393
O	2.214393	2.214393	0.000000
O	2.214393	0.000000	2.214393
O	0.000000	2.214393	2.214393
Rh	0.000000	0.000000	0.000000
K	2.214393	2.214393	6.643174
O	2.214393	2.214393	4.428780
O	2.214393	0.000000	6.643174
O	0.000000	2.214393	6.643174
Rh	0.000000	0.000000	4.428780
K	2.214393	6.643174	2.214393
O	2.214393	6.643174	0.000000
O	2.214393	4.428780	2.214393
O	0.000000	6.643174	2.214393
Rh	0.000000	4.428780	0.000000
K	2.214393	6.643174	6.643174
O	2.214393	6.643174	4.428780
O	2.214393	4.428780	6.643174
O	0.000000	6.643174	6.643174
Rh	0.000000	4.428780	4.428780
K	6.643174	2.214393	2.214393
O	6.643174	2.214393	0.000000
O	6.643174	0.000000	2.214393
O	4.428780	2.214393	2.214393
Rh	4.428780	0.000000	0.000000
K	6.643174	2.214393	6.643174
O	6.643174	2.214393	4.428780
O	6.643174	0.000000	6.643174
O	4.428780	2.214393	6.643174
Rh	4.428780	0.000000	4.428780
K	6.643174	6.643174	2.214393
O	6.643174	6.643174	0.000000
O	6.643174	4.428780	2.214393
O	4.428780	6.643174	2.214393
Rh	4.428780	4.428780	0.000000
K	6.643174	6.643174	6.643174
O	6.643174	6.643174	4.428780
O	6.643174	4.428780	6.643174
O	4.428780	6.643174	6.643174
Rh	4.428780	4.428780	4.428780
