40

Ca	2.249174	2.249174	2.249174
Cl	0.000000	0.000000	0.000000
O	0.000000	2.249174	2.249174
O	2.249174	0.000000	2.249174
O	2.249174	2.249174	0.000000
Ca	2.249174	2.249174	6.747523
Cl	0.000000	0.000000	4.498349
O	0.000000	2.249174	6.747523
O	2.249174	0.000000	6.747523
O	2.249174	2.249174	4.498349
Ca	2.249174	6.747523	2.249174
Cl	0.000000	4.498349	0.000000
O	0.000000	6.747523	2.249174
O	2.249174	4.498349	2.249174
O	2.249174	6.747523	0.000000
Ca	2.249174	6.747523	6.747523
Cl	0.000000	4.498349	4.498349
O	0.000000	6.747523	6.747523
O	2.249174	4.498349	6.747523
O	2.249174	6.747523	4.498349
Ca	6.747523	2.249174	2.249174
Cl	4.498349	0.000000	0.000000
O	4.498349	2.249174	2.249174
O	6.747523	0.000000	2.249174
O	6.747523	2.249174	0.000000
Ca	6.747523	2.249174	6.747523
Cl	4.498349	0.000000	4.498349
O	4.498349	2.249174	6.747523
O	6.747523	0.000000	6.747523
O	6.747523	2.249174	4.498349
Ca	6.747523	6.747523	2.249174
Cl	4.498349	4.498349	0.000000
O	4.498349	6.747523	2.249174
O	6.747523	4.498349	2.249174
O	6.747523	6.747523	0.000000
Ca	6.747523	6.747523	6.747523
Cl	4.498349	4.498349	4.498349
O	4.498349	6.747523	6.747523
O	6.747523	4.498349	6.747523
O	6.747523	6.747523	4.498349
