40

O	2.164270	2.164270	0.000000
O	0.000000	2.164270	2.164270
O	2.164270	0.000000	2.164270
Rb_sv	2.164270	2.164270	2.164270
Tb_3	0.000000	0.000000	0.000000
O	2.164270	2.164270	4.328536
O	0.000000	2.164270	6.492806
O	2.164270	0.000000	6.492806
Rb_sv	2.164270	2.164270	6.492806
Tb_3	0.000000	0.000000	4.328536
O	2.164270	6.492806	0.000000
O	0.000000	6.492806	2.164270
O	2.164270	4.328536	2.164270
Rb_sv	2.164270	6.492806	2.164270
Tb_3	0.000000	4.328536	0.000000
O	2.164270	6.492806	4.328536
O	0.000000	6.492806	6.492806
O	2.164270	4.328536	6.492806
Rb_sv	2.164270	6.492806	6.492806
Tb_3	0.000000	4.328536	4.328536
O	6.492806	2.164270	0.000000
O	4.328536	2.164270	2.164270
O	6.492806	0.000000	2.164270
Rb_sv	6.492806	2.164270	2.164270
Tb_3	4.328536	0.000000	0.000000
O	6.492806	2.164270	4.328536
O	4.328536	2.164270	6.492806
O	6.492806	0.000000	6.492806
Rb_sv	6.492806	2.164270	6.492806
Tb_3	4.328536	0.000000	4.328536
O	6.492806	6.492806	0.000000
O	4.328536	6.492806	2.164270
O	6.492806	4.328536	2.164270
Rb_sv	6.492806	6.492806	2.164270
Tb_3	4.328536	4.328536	0.000000
O	6.492806	6.492806	4.328536
O	4.328536	6.492806	6.492806
O	6.492806	4.328536	6.492806
Rb_sv	6.492806	6.492806	6.492806
Tb_3	4.328536	4.328536	4.328536
