40

Cu	0.000000	0.000000	0.000000
Ni	1.827730	1.827730	1.827730
O	1.827730	0.000000	1.827730
O	0.000000	1.827730	1.827730
O	1.827730	1.827730	0.000000
Cu	0.000000	0.000000	3.655448
Ni	1.827730	1.827730	5.483178
O	1.827730	0.000000	5.483178
O	0.000000	1.827730	5.483178
O	1.827730	1.827730	3.655448
Cu	0.000000	3.655448	0.000000
Ni	1.827730	5.483178	1.827730
O	1.827730	3.655448	1.827730
O	0.000000	5.483178	1.827730
O	1.827730	5.483178	0.000000
Cu	0.000000	3.655448	3.655448
Ni	1.827730	5.483178	5.483178
O	1.827730	3.655448	5.483178
O	0.000000	5.483178	5.483178
O	1.827730	5.483178	3.655448
Cu	3.655448	0.000000	0.000000
Ni	5.483178	1.827730	1.827730
O	5.483178	0.000000	1.827730
O	3.655448	1.827730	1.827730
O	5.483178	1.827730	0.000000
Cu	3.655448	0.000000	3.655448
Ni	5.483178	1.827730	5.483178
O	5.483178	0.000000	5.483178
O	3.655448	1.827730	5.483178
O	5.483178	1.827730	3.655448
Cu	3.655448	3.655448	0.000000
Ni	5.483178	5.483178	1.827730
O	5.483178	3.655448	1.827730
O	3.655448	5.483178	1.827730
O	5.483178	5.483178	0.000000
Cu	3.655448	3.655448	3.655448
Ni	5.483178	5.483178	5.483178
O	5.483178	3.655448	5.483178
O	3.655448	5.483178	5.483178
O	5.483178	5.483178	3.655448
