40

O	2.199652	2.199652	0.000000
O	2.199652	0.000000	2.199652
O	0.000000	2.199652	2.199652
Sr	2.199652	2.199652	2.199652
Zr	0.000000	0.000000	0.000000
O	2.199652	2.199652	4.399305
O	2.199652	0.000000	6.598957
O	0.000000	2.199652	6.598957
Sr	2.199652	2.199652	6.598957
Zr	0.000000	0.000000	4.399305
O	2.199652	6.598957	0.000000
O	2.199652	4.399305	2.199652
O	0.000000	6.598957	2.199652
Sr	2.199652	6.598957	2.199652
Zr	0.000000	4.399305	0.000000
O	2.199652	6.598957	4.399305
O	2.199652	4.399305	6.598957
O	0.000000	6.598957	6.598957
Sr	2.199652	6.598957	6.598957
Zr	0.000000	4.399305	4.399305
O	6.598957	2.199652	0.000000
O	6.598957	0.000000	2.199652
O	4.399305	2.199652	2.199652
Sr	6.598957	2.199652	2.199652
Zr	4.399305	0.000000	0.000000
O	6.598957	2.199652	4.399305
O	6.598957	0.000000	6.598957
O	4.399305	2.199652	6.598957
Sr	6.598957	2.199652	6.598957
Zr	4.399305	0.000000	4.399305
O	6.598957	6.598957	0.000000
O	6.598957	4.399305	2.199652
O	4.399305	6.598957	2.199652
Sr	6.598957	6.598957	2.199652
Zr	4.399305	4.399305	0.000000
O	6.598957	6.598957	4.399305
O	6.598957	4.399305	6.598957
O	4.399305	6.598957	6.598957
Sr	6.598957	6.598957	6.598957
Zr	4.399305	4.399305	4.399305
