40

F	1.844898	1.844898	1.844898
O	0.000000	1.844898	1.844898
O	1.844898	0.000000	1.844898
O	1.844898	1.844898	0.000000
Si	0.000000	0.000000	0.000000
F	1.844898	1.844898	5.534694
O	0.000000	1.844898	5.534694
O	1.844898	0.000000	5.534694
O	1.844898	1.844898	3.689796
Si	0.000000	0.000000	3.689796
F	1.844898	5.534694	1.844898
O	0.000000	5.534694	1.844898
O	1.844898	3.689796	1.844898
O	1.844898	5.534694	0.000000
Si	0.000000	3.689796	0.000000
F	1.844898	5.534694	5.534694
O	0.000000	5.534694	5.534694
O	1.844898	3.689796	5.534694
O	1.844898	5.534694	3.689796
Si	0.000000	3.689796	3.689796
F	5.534694	1.844898	1.844898
O	3.689796	1.844898	1.844898
O	5.534694	0.000000	1.844898
O	5.534694	1.844898	0.000000
Si	3.689796	0.000000	0.000000
F	5.534694	1.844898	5.534694
O	3.689796	1.844898	5.534694
O	5.534694	0.000000	5.534694
O	5.534694	1.844898	3.689796
Si	3.689796	0.000000	3.689796
F	5.534694	5.534694	1.844898
O	3.689796	5.534694	1.844898
O	5.534694	3.689796	1.844898
O	5.534694	5.534694	0.000000
Si	3.689796	3.689796	0.000000
F	5.534694	5.534694	5.534694
O	3.689796	5.534694	5.534694
O	5.534694	3.689796	5.534694
O	5.534694	5.534694	3.689796
Si	3.689796	3.689796	3.689796
