40

Ag	0.000000	0.000000	0.000000
O	0.000000	2.223414	2.223414
O	2.223414	0.000000	2.223414
O	2.223414	2.223414	0.000000
Y	2.223414	2.223414	2.223414
Ag	0.000000	0.000000	4.446828
O	0.000000	2.223414	6.670242
O	2.223414	0.000000	6.670242
O	2.223414	2.223414	4.446828
Y	2.223414	2.223414	6.670242
Ag	0.000000	4.446828	0.000000
O	0.000000	6.670242	2.223414
O	2.223414	4.446828	2.223414
O	2.223414	6.670242	0.000000
Y	2.223414	6.670242	2.223414
Ag	0.000000	4.446828	4.446828
O	0.000000	6.670242	6.670242
O	2.223414	4.446828	6.670242
O	2.223414	6.670242	4.446828
Y	2.223414	6.670242	6.670242
Ag	4.446828	0.000000	0.000000
O	4.446828	2.223414	2.223414
O	6.670242	0.000000	2.223414
O	6.670242	2.223414	0.000000
Y	6.670242	2.223414	2.223414
Ag	4.446828	0.000000	4.446828
O	4.446828	2.223414	6.670242
O	6.670242	0.000000	6.670242
O	6.670242	2.223414	4.446828
Y	6.670242	2.223414	6.670242
Ag	4.446828	4.446828	0.000000
O	4.446828	6.670242	2.223414
O	6.670242	4.446828	2.223414
O	6.670242	6.670242	0.000000
Y	6.670242	6.670242	2.223414
Ag	4.446828	4.446828	4.446828
O	4.446828	6.670242	6.670242
O	6.670242	4.446828	6.670242
O	6.670242	6.670242	4.446828
Y	6.670242	6.670242	6.670242
