40

Cr	1.910249	1.910249	1.910249
La	0.000000	0.000000	0.000000
O	1.910249	1.910249	-0.015000
O	0.000000	1.910249	1.910249
O	1.910249	0.000000	1.910249
Cr	1.910249	1.910249	5.730746
La	0.000000	0.000000	3.820497
O	1.910249	1.910249	3.805497
O	0.000000	1.910249	5.730746
O	1.910249	0.000000	5.730746
Cr	1.910249	5.730746	1.910249
La	0.000000	3.820497	0.000000
O	1.910249	5.730746	-0.015000
O	0.000000	5.730746	1.910249
O	1.910249	3.820497	1.910249
Cr	1.910249	5.730746	5.730746
La	0.000000	3.820497	3.820497
O	1.910249	5.730746	3.805497
O	0.000000	5.730746	5.730746
O	1.910249	3.820497	5.730746
Cr	5.730746	1.910249	1.910249
La	3.820497	0.000000	0.000000
O	5.730746	1.910249	-0.015000
O	3.820497	1.910249	1.910249
O	5.730746	0.000000	1.910249
Cr	5.730746	1.910249	5.730746
La	3.820497	0.000000	3.820497
O	5.730746	1.910249	3.805497
O	3.820497	1.910249	5.730746
O	5.730746	0.000000	5.730746
Cr	5.730746	5.730746	1.910249
La	3.820497	3.820497	0.000000
O	5.730746	5.730746	-0.015000
O	3.820497	5.730746	1.910249
O	5.730746	3.820497	1.910249
Cr	5.730746	5.730746	5.730746
La	3.820497	3.820497	3.820497
O	5.730746	5.730746	3.805497
O	3.820497	5.730746	5.730746
O	5.730746	3.820497	5.730746
