40

F	0.000000	1.921130	1.921130
F	1.921130	0.000000	1.921130
F	1.921130	1.921130	0.000000
O	1.921130	1.921130	1.921130
Zn	0.000000	0.000000	0.000000
F	0.000000	1.921130	5.763390
F	1.921130	0.000000	5.763390
F	1.921130	1.921130	3.842260
O	1.921130	1.921130	5.763390
Zn	0.000000	0.000000	3.842260
F	0.000000	5.763390	1.921130
F	1.921130	3.842260	1.921130
F	1.921130	5.763390	0.000000
O	1.921130	5.763390	1.921130
Zn	0.000000	3.842260	0.000000
F	0.000000	5.763390	5.763390
F	1.921130	3.842260	5.763390
F	1.921130	5.763390	3.842260
O	1.921130	5.763390	5.763390
Zn	0.000000	3.842260	3.842260
F	3.842260	1.921130	1.921130
F	5.763390	0.000000	1.921130
F	5.763390	1.921130	0.000000
O	5.763390	1.921130	1.921130
Zn	3.842260	0.000000	0.000000
F	3.842260	1.921130	5.763390
F	5.763390	0.000000	5.763390
F	5.763390	1.921130	3.842260
O	5.763390	1.921130	5.763390
Zn	3.842260	0.000000	3.842260
F	3.842260	5.763390	1.921130
F	5.763390	3.842260	1.921130
F	5.763390	5.763390	0.000000
O	5.763390	5.763390	1.921130
Zn	3.842260	3.842260	0.000000
F	3.842260	5.763390	5.763390
F	5.763390	3.842260	5.763390
F	5.763390	5.763390	3.842260
O	5.763390	5.763390	5.763390
Zn	3.842260	3.842260	3.842260
