40

F	0.000000	1.959374	1.959374
F	1.959374	0.000000	1.959374
F	1.959374	1.959374	0.000000
O	0.000000	0.000000	0.000000
Zn	1.959374	1.959374	1.959374
F	0.000000	1.959374	5.878122
F	1.959374	0.000000	5.878122
F	1.959374	1.959374	3.918748
O	0.000000	0.000000	3.918748
Zn	1.959374	1.959374	5.878122
F	0.000000	5.878122	1.959374
F	1.959374	3.918748	1.959374
F	1.959374	5.878122	0.000000
O	0.000000	3.918748	0.000000
Zn	1.959374	5.878122	1.959374
F	0.000000	5.878122	5.878122
F	1.959374	3.918748	5.878122
F	1.959374	5.878122	3.918748
O	0.000000	3.918748	3.918748
Zn	1.959374	5.878122	5.878122
F	3.918748	1.959374	1.959374
F	5.878122	0.000000	1.959374
F	5.878122	1.959374	0.000000
O	3.918748	0.000000	0.000000
Zn	5.878122	1.959374	1.959374
F	3.918748	1.959374	5.878122
F	5.878122	0.000000	5.878122
F	5.878122	1.959374	3.918748
O	3.918748	0.000000	3.918748
Zn	5.878122	1.959374	5.878122
F	3.918748	5.878122	1.959374
F	5.878122	3.918748	1.959374
F	5.878122	5.878122	0.000000
O	3.918748	3.918748	0.000000
Zn	5.878122	5.878122	1.959374
F	3.918748	5.878122	5.878122
F	5.878122	3.918748	5.878122
F	5.878122	5.878122	3.918748
O	3.918748	3.918748	3.918748
Zn	5.878122	5.878122	5.878122
