40

F	0.000000	1.961799	1.961799
F	1.961799	0.000000	1.961799
F	1.961799	1.961799	0.000000
O	0.000000	0.000000	0.000000
Zn	1.961799	1.961799	1.961799
F	0.000000	1.961799	5.885398
F	1.961799	0.000000	5.885398
F	1.961799	1.961799	3.923599
O	0.000000	0.000000	3.923599
Zn	1.961799	1.961799	5.885398
F	0.000000	5.885398	1.961799
F	1.961799	3.923599	1.961799
F	1.961799	5.885398	0.000000
O	0.000000	3.923599	0.000000
Zn	1.961799	5.885398	1.961799
F	0.000000	5.885398	5.885398
F	1.961799	3.923599	5.885398
F	1.961799	5.885398	3.923599
O	0.000000	3.923599	3.923599
Zn	1.961799	5.885398	5.885398
F	3.923599	1.961799	1.961799
F	5.885398	0.000000	1.961799
F	5.885398	1.961799	0.000000
O	3.923599	0.000000	0.000000
Zn	5.885398	1.961799	1.961799
F	3.923599	1.961799	5.885398
F	5.885398	0.000000	5.885398
F	5.885398	1.961799	3.923599
O	3.923599	0.000000	3.923599
Zn	5.885398	1.961799	5.885398
F	3.923599	5.885398	1.961799
F	5.885398	3.923599	1.961799
F	5.885398	5.885398	0.000000
O	3.923599	3.923599	0.000000
Zn	5.885398	5.885398	1.961799
F	3.923599	5.885398	5.885398
F	5.885398	3.923599	5.885398
F	5.885398	5.885398	3.923599
O	3.923599	3.923599	3.923599
Zn	5.885398	5.885398	5.885398
