40

Na	0.000000	0.000000	0.000000
O	0.000000	1.959227	1.959227
O	1.959227	0.000000	1.959227
O	1.959227	1.959227	0.000000
Rh	1.959227	1.959227	1.959227
Na	0.000000	0.000000	3.918454
O	0.000000	1.959227	5.877681
O	1.959227	0.000000	5.877681
O	1.959227	1.959227	3.918454
Rh	1.959227	1.959227	5.877681
Na	0.000000	3.918454	0.000000
O	0.000000	5.877681	1.959227
O	1.959227	3.918454	1.959227
O	1.959227	5.877681	0.000000
Rh	1.959227	5.877681	1.959227
Na	0.000000	3.918454	3.918454
O	0.000000	5.877681	5.877681
O	1.959227	3.918454	5.877681
O	1.959227	5.877681	3.918454
Rh	1.959227	5.877681	5.877681
Na	3.918454	0.000000	0.000000
O	3.918454	1.959227	1.959227
O	5.877681	0.000000	1.959227
O	5.877681	1.959227	0.000000
Rh	5.877681	1.959227	1.959227
Na	3.918454	0.000000	3.918454
O	3.918454	1.959227	5.877681
O	5.877681	0.000000	5.877681
O	5.877681	1.959227	3.918454
Rh	5.877681	1.959227	5.877681
Na	3.918454	3.918454	0.000000
O	3.918454	5.877681	1.959227
O	5.877681	3.918454	1.959227
O	5.877681	5.877681	0.000000
Rh	5.877681	5.877681	1.959227
Na	3.918454	3.918454	3.918454
O	3.918454	5.877681	5.877681
O	5.877681	3.918454	5.877681
O	5.877681	5.877681	3.918454
Rh	5.877681	5.877681	5.877681
