40

Nd	0.000000	0.000000	0.000000
O	2.198990	2.198990	0.000000
O	0.000000	2.198990	2.198990
O	2.198990	0.000000	2.198990
Sm	2.198990	2.198990	2.198990
Nd	0.000000	0.000000	4.397963
O	2.198990	2.198990	4.397963
O	0.000000	2.198990	6.596953
O	2.198990	0.000000	6.596953
Sm	2.198990	2.198990	6.596953
Nd	0.000000	4.397963	0.000000
O	2.198990	6.596953	0.000000
O	0.000000	6.596953	2.198990
O	2.198990	4.397963	2.198990
Sm	2.198990	6.596953	2.198990
Nd	0.000000	4.397963	4.397963
O	2.198990	6.596953	4.397963
O	0.000000	6.596953	6.596953
O	2.198990	4.397963	6.596953
Sm	2.198990	6.596953	6.596953
Nd	4.397963	0.000000	0.000000
O	6.596953	2.198990	0.000000
O	4.397963	2.198990	2.198990
O	6.596953	0.000000	2.198990
Sm	6.596953	2.198990	2.198990
Nd	4.397963	0.000000	4.397963
O	6.596953	2.198990	4.397963
O	4.397963	2.198990	6.596953
O	6.596953	0.000000	6.596953
Sm	6.596953	2.198990	6.596953
Nd	4.397963	4.397963	0.000000
O	6.596953	6.596953	0.000000
O	4.397963	6.596953	2.198990
O	6.596953	4.397963	2.198990
Sm	6.596953	6.596953	2.198990
Nd	4.397963	4.397963	4.397963
O	6.596953	6.596953	4.397963
O	4.397963	6.596953	6.596953
O	6.596953	4.397963	6.596953
Sm	6.596953	6.596953	6.596953
