112

Hf	0.000000	0.000000	0.000000
Hf	2.388605	-2.389048	-2.389048
O	1.137373	1.138000	-1.138000
O	-1.251231	1.251048	-3.527038
O	3.525978	-1.251048	-1.251048
O	1.251231	-1.251048	-3.527038
O	1.137373	3.640096	-3.640096
O	3.639836	3.640096	-1.138000
O	3.639836	1.138000	-3.640096
O	6.028441	1.251048	-1.251048
Sm	-1.194297	-1.194519	-3.583567
Sm	3.582902	1.194519	-1.194519
Sm	1.194297	1.194519	-3.583567
Sm	5.971507	-1.194519	-1.194519
Hf	4.777206	4.778091	0.000000
Hf	7.165811	2.389043	-2.389048
O	5.914579	5.916090	-1.138000
O	3.525975	6.029139	-3.527038
O	8.303184	3.527042	-1.251048
O	6.028438	3.527042	-3.527038
O	5.914579	8.418186	-3.640096
O	8.417042	8.418186	-1.138000
O	8.417042	5.916090	-3.640096
O	10.805647	6.029139	-1.251048
Sm	3.582909	3.583572	-3.583567
Sm	8.360108	5.972610	-1.194519
Sm	5.971504	5.972610	-3.583567
Sm	10.748713	3.583572	-1.194519
Hf	-4.777206	0.000000	-4.778091
Hf	-2.388601	-2.389048	-7.167138
O	-3.639833	1.138000	-5.916090
O	-6.028438	1.251048	-8.305128
O	-1.251228	-1.251048	-6.029139
O	-3.525975	-1.251048	-8.305128
O	-3.639833	3.640096	-8.418187
O	-1.137370	3.640096	-5.916090
O	-1.137370	1.138000	-8.418187
O	1.251235	1.251048	-6.029139
Sm	-5.971504	-1.194519	-8.361657
Sm	-1.194304	1.194519	-5.972610
Sm	-3.582909	1.194519	-8.361657
Sm	1.194301	-1.194519	-5.972610
Hf	0.000000	4.778091	-4.778091
Hf	2.388605	2.389043	-7.167138
O	1.137373	5.916090	-5.916090
O	-1.251231	6.029139	-8.305128
O	3.525978	3.527042	-6.029139
O	1.251231	3.527042	-8.305128
O	1.137373	8.418186	-8.418187
O	3.639836	8.418186	-5.916090
O	3.639836	5.916090	-8.418187
O	6.028441	6.029139	-6.029139
Sm	-1.194297	3.583572	-8.361657
Sm	3.582902	5.972610	-5.972610
Sm	1.194297	5.972610	-8.361657
Sm	5.971507	3.583572	-5.972610
Hf	4.777206	-4.778091	0.000000
Hf	7.165811	-7.167138	-2.389048
O	5.914579	-3.640091	-1.138000
O	3.525975	-3.527042	-3.527038
O	8.303184	-6.029139	-1.251048
O	6.028438	-6.029139	-3.527038
O	5.914579	-1.137995	-3.640096
O	8.417042	-1.137995	-1.138000
O	8.417042	-3.640091	-3.640096
O	10.805647	-3.527042	-1.251048
Sm	3.582909	-5.972610	-3.583567
Sm	8.360108	-3.583572	-1.194519
Sm	5.971504	-3.583572	-3.583567
Sm	10.748713	-5.972609	-1.194519
Hf	9.554412	0.000000	0.000000
Hf	11.943017	-2.389048	-2.389048
O	10.691786	1.138000	-1.138000
O	8.303181	1.251048	-3.527038
O	13.080390	-1.251048	-1.251048
O	10.805644	-1.251048	-3.527038
O	10.691786	3.640096	-3.640096
O	13.194249	3.640096	-1.138000
O	13.194248	1.138000	-3.640096
O	15.582853	1.251048	-1.251048
Sm	8.360115	-1.194519	-3.583567
Sm	13.137314	1.194519	-1.194519
Sm	10.748710	1.194519	-3.583567
Sm	15.525919	-1.194519	-1.194519
Hf	0.000000	-4.778091	-4.778091
Hf	2.388605	-7.167138	-7.167138
O	1.137373	-3.640091	-5.916090
O	-1.251231	-3.527042	-8.305128
O	3.525978	-6.029139	-6.029139
O	1.251231	-6.029139	-8.305128
O	1.137373	-1.137995	-8.418187
O	3.639836	-1.137995	-5.916090
O	3.639836	-3.640091	-8.418187
O	6.028441	-3.527042	-6.029139
Sm	-1.194297	-5.972610	-8.361657
Sm	3.582902	-3.583572	-5.972610
Sm	1.194297	-3.583572	-8.361657
Sm	5.971507	-5.972609	-5.972610
Hf	4.777206	0.000000	-4.778091
Hf	7.165811	-2.389048	-7.167138
O	5.914579	1.138000	-5.916090
O	3.525975	1.251048	-8.305128
O	8.303184	-1.251048	-6.029139
O	6.028438	-1.251048	-8.305128
O	5.914579	3.640096	-8.418187
O	8.417042	3.640096	-5.916090
O	8.417042	1.138000	-8.418187
O	10.805647	1.251048	-6.029139
Sm	3.582909	-1.194519	-8.361657
Sm	8.360108	1.194519	-5.972610
Sm	5.971504	1.194519	-8.361657
Sm	10.748713	-1.194519	-5.972610
