112

Mo	0.000000	0.000000	0.000000
Mo	2.495317	-2.496910	-2.496910
O	3.530512	-1.462466	-1.462466
O	-1.460121	1.462466	-3.531353
O	1.460121	-1.462466	-3.531353
O	1.035196	1.034443	-1.034443
O	6.450754	1.462466	-1.462466
O	1.035196	3.959376	-3.959376
O	3.955437	3.959376	-1.034443
O	3.955437	1.034443	-3.959376
Te	-1.247658	-1.248455	-3.745364
Te	3.742975	1.248455	-1.248455
Te	6.238292	-1.248455	-1.248455
Te	1.247658	1.248455	-3.745364
Mo	4.990633	4.993819	0.000000
Mo	7.485950	2.496910	-2.496910
O	8.521146	3.531353	-1.462466
O	3.530512	6.456285	-3.531353
O	6.450754	3.531353	-3.531353
O	6.025829	6.028262	-1.034443
O	11.441387	6.456285	-1.462466
O	6.025829	8.953195	-3.959376
O	8.946071	8.953195	-1.034443
O	8.946071	6.028262	-3.959376
Te	3.742975	3.745364	-3.745364
Te	8.733608	6.242274	-1.248455
Te	11.228925	3.745364	-1.248455
Te	6.238292	6.242274	-3.745364
Mo	-4.990633	0.000000	-4.993819
Mo	-2.495317	-2.496910	-7.490729
O	-1.460121	-1.462466	-6.456285
O	-6.450754	1.462466	-8.525172
O	-3.530512	-1.462466	-8.525172
O	-3.955437	1.034443	-6.028262
O	1.460121	1.462466	-6.456285
O	-3.955437	3.959376	-8.953195
O	-1.035196	3.959376	-6.028262
O	-1.035196	1.034443	-8.953195
Te	-6.238292	-1.248455	-8.739183
Te	-1.247658	1.248455	-6.242274
Te	1.247658	-1.248455	-6.242274
Te	-3.742975	1.248455	-8.739183
Mo	0.000000	4.993819	-4.993819
Mo	2.495317	2.496910	-7.490729
O	3.530512	3.531353	-6.456285
O	-1.460121	6.456285	-8.525172
O	1.460121	3.531353	-8.525172
O	1.035196	6.028262	-6.028262
O	6.450754	6.456285	-6.456285
O	1.035196	8.953195	-8.953195
O	3.955437	8.953195	-6.028262
O	3.955437	6.028262	-8.953195
Te	-1.247658	3.745364	-8.739183
Te	3.742975	6.242274	-6.242274
Te	6.238292	3.745364	-6.242274
Te	1.247658	6.242274	-8.739183
Mo	4.990633	-4.993819	0.000000
Mo	7.485950	-7.490729	-2.496910
O	8.521146	-6.456285	-1.462466
O	3.530512	-3.531353	-3.531353
O	6.450754	-6.456285	-3.531353
O	6.025829	-3.959376	-1.034443
O	11.441387	-3.531353	-1.462466
O	6.025829	-1.034443	-3.959376
O	8.946071	-1.034443	-1.034443
O	8.946071	-3.959376	-3.959376
Te	3.742975	-6.242274	-3.745364
Te	8.733608	-3.745364	-1.248455
Te	11.228925	-6.242274	-1.248455
Te	6.238292	-3.745364	-3.745364
Mo	9.981266	0.000000	0.000000
Mo	12.476583	-2.496910	-2.496910
O	13.511779	-1.462466	-1.462466
O	8.521146	1.462466	-3.531353
O	11.441387	-1.462466	-3.531353
O	11.016462	1.034443	-1.034443
O	16.432020	1.462466	-1.462466
O	11.016462	3.959376	-3.959376
O	13.936704	3.959376	-1.034443
O	13.936704	1.034443	-3.959376
Te	8.733608	-1.248455	-3.745364
Te	13.724241	1.248455	-1.248455
Te	16.219558	-1.248455	-1.248455
Te	11.228925	1.248455	-3.745364
Mo	0.000000	-4.993819	-4.993819
Mo	2.495317	-7.490729	-7.490729
O	3.530512	-6.456285	-6.456285
O	-1.460121	-3.531353	-8.525172
O	1.460121	-6.456285	-8.525172
O	1.035196	-3.959376	-6.028262
O	6.450754	-3.531353	-6.456285
O	1.035196	-1.034443	-8.953195
O	3.955437	-1.034443	-6.028262
O	3.955437	-3.959376	-8.953195
Te	-1.247658	-6.242274	-8.739183
Te	3.742975	-3.745364	-6.242274
Te	6.238292	-6.242274	-6.242274
Te	1.247658	-3.745364	-8.739183
Mo	4.990633	0.000000	-4.993819
Mo	7.485950	-2.496910	-7.490729
O	8.521146	-1.462466	-6.456285
O	3.530512	1.462466	-8.525172
O	6.450754	-1.462466	-8.525172
O	6.025829	1.034443	-6.028262
O	11.441387	1.462466	-6.456285
O	6.025829	3.959376	-8.953195
O	8.946071	3.959376	-6.028262
O	8.946071	1.034443	-8.953195
Te	3.742975	-1.248455	-8.739183
Te	8.733608	1.248455	-6.242274
Te	11.228925	-1.248455	-6.242274
Te	6.238292	1.248455	-8.739183
