40

La	2.287101	2.287101	2.287101
Nd	0.000000	0.000000	0.000000
O	2.287101	2.287101	0.000000
O	2.287101	0.000000	2.287101
O	0.000000	2.287101	2.287101
La	2.287101	2.287101	6.861304
Nd	0.000000	0.000000	4.574203
O	2.287101	2.287101	4.574203
O	2.287101	0.000000	6.861304
O	0.000000	2.287101	6.861304
La	2.287101	6.861304	2.287101
Nd	0.000000	4.574203	0.000000
O	2.287101	6.861304	0.000000
O	2.287101	4.574203	2.287101
O	0.000000	6.861304	2.287101
La	2.287101	6.861304	6.861304
Nd	0.000000	4.574203	4.574203
O	2.287101	6.861304	4.574203
O	2.287101	4.574203	6.861304
O	0.000000	6.861304	6.861304
La	6.861304	2.287101	2.287101
Nd	4.574203	0.000000	0.000000
O	6.861304	2.287101	0.000000
O	6.861304	0.000000	2.287101
O	4.574203	2.287101	2.287101
La	6.861304	2.287101	6.861304
Nd	4.574203	0.000000	4.574203
O	6.861304	2.287101	4.574203
O	6.861304	0.000000	6.861304
O	4.574203	2.287101	6.861304
La	6.861304	6.861304	2.287101
Nd	4.574203	4.574203	0.000000
O	6.861304	6.861304	0.000000
O	6.861304	4.574203	2.287101
O	4.574203	6.861304	2.287101
La	6.861304	6.861304	6.861304
Nd	4.574203	4.574203	4.574203
O	6.861304	6.861304	4.574203
O	6.861304	4.574203	6.861304
O	4.574203	6.861304	6.861304
