112

Bi	0.000000	0.000000	0.000000
Bi	2.258185	-2.258744	-2.258744
O	-0.924354	0.924095	-3.593384
O	3.592006	-0.924095	-0.924095
O	0.924354	-0.924095	-3.593384
O	1.333831	1.334649	-1.334649
O	5.440714	0.924095	-0.924095
O	1.333831	3.182839	-3.182839
O	3.182529	1.334649	-3.182839
O	3.182529	3.182839	-1.334649
Ti	-1.129092	-1.129372	-3.388117
Ti	3.387267	1.129372	-1.129372
Ti	5.645452	-1.129372	-1.129372
Ti	1.129092	1.129372	-3.388117
Bi	4.516360	4.517485	0.000000
Bi	6.774545	2.258741	-2.258744
O	3.592006	5.441580	-3.593384
O	8.108366	3.593390	-0.924095
O	5.440714	3.593390	-3.593384
O	5.850191	5.852135	-1.334649
O	9.957074	5.441580	-0.924095
O	5.850191	7.700325	-3.182839
O	7.698889	5.852135	-3.182839
O	7.698889	7.700325	-1.334649
Ti	3.387267	3.388113	-3.388117
Ti	7.903627	5.646857	-1.129372
Ti	10.161812	3.388113	-1.129372
Ti	5.645452	5.646857	-3.388117
Bi	-4.516360	0.000000	-4.517485
Bi	-2.258175	-2.258744	-6.776230
O	-5.440714	0.924095	-8.110869
O	-0.924354	-0.924095	-5.441580
O	-3.592006	-0.924095	-8.110869
O	-3.182529	1.334649	-5.852135
O	0.924354	0.924095	-5.441580
O	-3.182529	3.182839	-7.700325
O	-1.333831	1.334649	-7.700325
O	-1.333831	3.182839	-5.852135
Ti	-5.645452	-1.129372	-7.905602
Ti	-1.129093	1.129372	-5.646857
Ti	1.129092	-1.129372	-5.646857
Ti	-3.387267	1.129372	-7.905602
Bi	0.000000	4.517485	-4.517485
Bi	2.258185	2.258741	-6.776230
O	-0.924354	5.441580	-8.110869
O	3.592006	3.593390	-5.441580
O	0.924354	3.593390	-8.110869
O	1.333831	5.852135	-5.852135
O	5.440714	5.441580	-5.441580
O	1.333831	7.700325	-7.700325
O	3.182529	5.852135	-7.700325
O	3.182529	7.700325	-5.852135
Ti	-1.129092	3.388113	-7.905602
Ti	3.387267	5.646857	-5.646857
Ti	5.645452	3.388113	-5.646857
Ti	1.129092	5.646857	-7.905602
Bi	4.516360	-4.517485	0.000000
Bi	6.774545	-6.776230	-2.258744
O	3.592006	-3.593390	-3.593384
O	8.108366	-5.441580	-0.924095
O	5.440714	-5.441580	-3.593384
O	5.850191	-3.182836	-1.334649
O	9.957074	-3.593390	-0.924095
O	5.850191	-1.334646	-3.182839
O	7.698889	-3.182836	-3.182839
O	7.698889	-1.334646	-1.334649
Ti	3.387267	-5.646857	-3.388117
Ti	7.903627	-3.388113	-1.129372
Ti	10.161812	-5.646857	-1.129372
Ti	5.645452	-3.388113	-3.388117
Bi	9.032720	0.000000	0.000000
Bi	11.290905	-2.258744	-2.258744
O	8.108366	0.924095	-3.593384
O	12.624726	-0.924095	-0.924095
O	9.957074	-0.924095	-3.593384
O	10.366551	1.334649	-1.334649
O	14.473434	0.924095	-0.924095
O	10.366551	3.182839	-3.182839
O	12.215249	1.334649	-3.182839
O	12.215249	3.182839	-1.334649
Ti	7.903627	-1.129372	-3.388117
Ti	12.419987	1.129372	-1.129372
Ti	14.678172	-1.129372	-1.129372
Ti	10.161812	1.129372	-3.388117
Bi	0.000000	-4.517485	-4.517485
Bi	2.258185	-6.776230	-6.776230
O	-0.924354	-3.593390	-8.110869
O	3.592006	-5.441580	-5.441580
O	0.924354	-5.441580	-8.110869
O	1.333831	-3.182836	-5.852135
O	5.440714	-3.593390	-5.441580
O	1.333831	-1.334646	-7.700325
O	3.182529	-3.182836	-7.700325
O	3.182529	-1.334646	-5.852135
Ti	-1.129092	-5.646857	-7.905602
Ti	3.387267	-3.388113	-5.646857
Ti	5.645452	-5.646857	-5.646857
Ti	1.129092	-3.388113	-7.905602
Bi	4.516360	0.000000	-4.517485
Bi	6.774545	-2.258744	-6.776230
O	3.592006	0.924095	-8.110869
O	8.108366	-0.924095	-5.441580
O	5.440714	-0.924095	-8.110869
O	5.850191	1.334649	-5.852135
O	9.957074	0.924095	-5.441580
O	5.850191	3.182839	-7.700325
O	7.698889	1.334649	-7.700325
O	7.698889	3.182839	-5.852135
Ti	3.387267	-1.129372	-7.905602
Ti	7.903627	1.129372	-5.646857
Ti	10.161812	-1.129372	-5.646857
Ti	5.645452	1.129372	-7.905602
