40

Au	0.000000	0.000000	0.000000
O	2.239672	2.239672	0.000000
O	2.239672	0.000000	2.239672
O	0.000000	2.239672	2.239672
Sr	2.239672	2.239672	2.239672
Au	0.000000	0.000000	4.479354
O	2.239672	2.239672	4.479354
O	2.239672	0.000000	6.719026
O	0.000000	2.239672	6.719026
Sr	2.239672	2.239672	6.719026
Au	0.000000	4.479354	0.000000
O	2.239672	6.719026	0.000000
O	2.239672	4.479354	2.239672
O	0.000000	6.719026	2.239672
Sr	2.239672	6.719026	2.239672
Au	0.000000	4.479354	4.479354
O	2.239672	6.719026	4.479354
O	2.239672	4.479354	6.719026
O	0.000000	6.719026	6.719026
Sr	2.239672	6.719026	6.719026
Au	4.479354	0.000000	0.000000
O	6.719026	2.239672	0.000000
O	6.719026	0.000000	2.239672
O	4.479354	2.239672	2.239672
Sr	6.719026	2.239672	2.239672
Au	4.479354	0.000000	4.479354
O	6.719026	2.239672	4.479354
O	6.719026	0.000000	6.719026
O	4.479354	2.239672	6.719026
Sr	6.719026	2.239672	6.719026
Au	4.479354	4.479354	0.000000
O	6.719026	6.719026	0.000000
O	6.719026	4.479354	2.239672
O	4.479354	6.719026	2.239672
Sr	6.719026	6.719026	2.239672
Au	4.479354	4.479354	4.479354
O	6.719026	6.719026	4.479354
O	6.719026	4.479354	6.719026
O	4.479354	6.719026	6.719026
Sr	6.719026	6.719026	6.719026
