40

Br	2.041179	2.041179	2.041179
O	0.000000	2.041179	2.041179
O	2.041179	0.000000	2.041179
O	2.041179	2.041179	0.000000
Tc	0.000000	0.000000	0.000000
Br	2.041179	2.041179	6.123538
O	0.000000	2.041179	6.123538
O	2.041179	0.000000	6.123538
O	2.041179	2.041179	4.082358
Tc	0.000000	0.000000	4.082358
Br	2.041179	6.123538	2.041179
O	0.000000	6.123538	2.041179
O	2.041179	4.082358	2.041179
O	2.041179	6.123538	0.000000
Tc	0.000000	4.082358	0.000000
Br	2.041179	6.123538	6.123538
O	0.000000	6.123538	6.123538
O	2.041179	4.082358	6.123538
O	2.041179	6.123538	4.082358
Tc	0.000000	4.082358	4.082358
Br	6.123538	2.041179	2.041179
O	4.082358	2.041179	2.041179
O	6.123538	0.000000	2.041179
O	6.123538	2.041179	0.000000
Tc	4.082358	0.000000	0.000000
Br	6.123538	2.041179	6.123538
O	4.082358	2.041179	6.123538
O	6.123538	0.000000	6.123538
O	6.123538	2.041179	4.082358
Tc	4.082358	0.000000	4.082358
Br	6.123538	6.123538	2.041179
O	4.082358	6.123538	2.041179
O	6.123538	4.082358	2.041179
O	6.123538	6.123538	0.000000
Tc	4.082358	4.082358	0.000000
Br	6.123538	6.123538	6.123538
O	4.082358	6.123538	6.123538
O	6.123538	4.082358	6.123538
O	6.123538	6.123538	4.082358
Tc	4.082358	4.082358	4.082358
