40

Bi	2.145461	2.145461	2.145461
O	2.145461	2.145461	0.000000
O	2.145461	0.000000	2.145461
O	0.000000	2.145461	2.145461
Si	0.000000	0.000000	0.000000
Bi	2.145461	2.145461	6.436384
O	2.145461	2.145461	4.290923
O	2.145461	0.000000	6.436384
O	0.000000	2.145461	6.436384
Si	0.000000	0.000000	4.290923
Bi	2.145461	6.436384	2.145461
O	2.145461	6.436384	0.000000
O	2.145461	4.290923	2.145461
O	0.000000	6.436384	2.145461
Si	0.000000	4.290923	0.000000
Bi	2.145461	6.436384	6.436384
O	2.145461	6.436384	4.290923
O	2.145461	4.290923	6.436384
O	0.000000	6.436384	6.436384
Si	0.000000	4.290923	4.290923
Bi	6.436384	2.145461	2.145461
O	6.436384	2.145461	0.000000
O	6.436384	0.000000	2.145461
O	4.290923	2.145461	2.145461
Si	4.290923	0.000000	0.000000
Bi	6.436384	2.145461	6.436384
O	6.436384	2.145461	4.290923
O	6.436384	0.000000	6.436384
O	4.290923	2.145461	6.436384
Si	4.290923	0.000000	4.290923
Bi	6.436384	6.436384	2.145461
O	6.436384	6.436384	0.000000
O	6.436384	4.290923	2.145461
O	4.290923	6.436384	2.145461
Si	4.290923	4.290923	0.000000
Bi	6.436384	6.436384	6.436384
O	6.436384	6.436384	4.290923
O	6.436384	4.290923	6.436384
O	4.290923	6.436384	6.436384
Si	4.290923	4.290923	4.290923
