40

Bi	0.000000	0.000000	0.000000
O	0.000000	1.903221	1.903221
O	1.903221	0.000000	1.903221
O	1.903221	1.903221	0.000000
Si	1.903221	1.903221	1.903221
Bi	0.000000	0.000000	3.806442
O	0.000000	1.903221	5.709664
O	1.903221	0.000000	5.709664
O	1.903221	1.903221	3.806442
Si	1.903221	1.903221	5.709664
Bi	0.000000	3.806442	0.000000
O	0.000000	5.709664	1.903221
O	1.903221	3.806442	1.903221
O	1.903221	5.709664	0.000000
Si	1.903221	5.709664	1.903221
Bi	0.000000	3.806442	3.806442
O	0.000000	5.709664	5.709664
O	1.903221	3.806442	5.709664
O	1.903221	5.709664	3.806442
Si	1.903221	5.709664	5.709664
Bi	3.806442	0.000000	0.000000
O	3.806442	1.903221	1.903221
O	5.709664	0.000000	1.903221
O	5.709664	1.903221	0.000000
Si	5.709664	1.903221	1.903221
Bi	3.806442	0.000000	3.806442
O	3.806442	1.903221	5.709664
O	5.709664	0.000000	5.709664
O	5.709664	1.903221	3.806442
Si	5.709664	1.903221	5.709664
Bi	3.806442	3.806442	0.000000
O	3.806442	5.709664	1.903221
O	5.709664	3.806442	1.903221
O	5.709664	5.709664	0.000000
Si	5.709664	5.709664	1.903221
Bi	3.806442	3.806442	3.806442
O	3.806442	5.709664	5.709664
O	5.709664	3.806442	5.709664
O	5.709664	5.709664	3.806442
Si	5.709664	5.709664	5.709664
