40

Bi	0.000000	0.000000	0.000000
O	0.000000	2.054929	2.054929
O	2.054929	0.000000	2.054929
O	2.054929	2.054929	0.000000
Ta	2.054929	2.054929	2.054929
Bi	0.000000	0.000000	4.109858
O	0.000000	2.054929	6.164786
O	2.054929	0.000000	6.164786
O	2.054929	2.054929	4.109858
Ta	2.054929	2.054929	6.164786
Bi	0.000000	4.109858	0.000000
O	0.000000	6.164786	2.054929
O	2.054929	4.109858	2.054929
O	2.054929	6.164786	0.000000
Ta	2.054929	6.164786	2.054929
Bi	0.000000	4.109858	4.109858
O	0.000000	6.164786	6.164786
O	2.054929	4.109858	6.164786
O	2.054929	6.164786	4.109858
Ta	2.054929	6.164786	6.164786
Bi	4.109858	0.000000	0.000000
O	4.109858	2.054929	2.054929
O	6.164786	0.000000	2.054929
O	6.164786	2.054929	0.000000
Ta	6.164786	2.054929	2.054929
Bi	4.109858	0.000000	4.109858
O	4.109858	2.054929	6.164786
O	6.164786	0.000000	6.164786
O	6.164786	2.054929	4.109858
Ta	6.164786	2.054929	6.164786
Bi	4.109858	4.109858	0.000000
O	4.109858	6.164786	2.054929
O	6.164786	4.109858	2.054929
O	6.164786	6.164786	0.000000
Ta	6.164786	6.164786	2.054929
Bi	4.109858	4.109858	4.109858
O	4.109858	6.164786	6.164786
O	6.164786	4.109858	6.164786
O	6.164786	6.164786	4.109858
Ta	6.164786	6.164786	6.164786
