40

Bi	2.197990	2.197990	2.197990
Er	0.000000	0.000000	0.000000
O	2.197990	2.197990	0.000000
O	2.197990	0.000000	2.197990
O	0.000000	2.197990	2.197990
Bi	2.197990	2.197990	6.593971
Er	0.000000	0.000000	4.395980
O	2.197990	2.197990	4.395980
O	2.197990	0.000000	6.593971
O	0.000000	2.197990	6.593971
Bi	2.197990	6.593971	2.197990
Er	0.000000	4.395980	0.000000
O	2.197990	6.593971	0.000000
O	2.197990	4.395980	2.197990
O	0.000000	6.593971	2.197990
Bi	2.197990	6.593971	6.593971
Er	0.000000	4.395980	4.395980
O	2.197990	6.593971	4.395980
O	2.197990	4.395980	6.593971
O	0.000000	6.593971	6.593971
Bi	6.593971	2.197990	2.197990
Er	4.395980	0.000000	0.000000
O	6.593971	2.197990	0.000000
O	6.593971	0.000000	2.197990
O	4.395980	2.197990	2.197990
Bi	6.593971	2.197990	6.593971
Er	4.395980	0.000000	4.395980
O	6.593971	2.197990	4.395980
O	6.593971	0.000000	6.593971
O	4.395980	2.197990	6.593971
Bi	6.593971	6.593971	2.197990
Er	4.395980	4.395980	0.000000
O	6.593971	6.593971	0.000000
O	6.593971	4.395980	2.197990
O	4.395980	6.593971	2.197990
Bi	6.593971	6.593971	6.593971
Er	4.395980	4.395980	4.395980
O	6.593971	6.593971	4.395980
O	6.593971	4.395980	6.593971
O	4.395980	6.593971	6.593971
