112

Cu	0.000000	0.000000	0.000000
Cu	2.335558	-2.336088	-2.336088
Eu	-1.167779	-1.168044	-3.504132
Eu	3.503337	1.168044	-1.168044
Eu	5.838895	-1.168044	-1.168044
Eu	1.167779	1.168044	-3.504132
O	3.436534	-1.234390	-1.234390
O	-1.234582	1.234390	-3.437786
O	1.234582	-1.234390	-3.437786
O	1.100976	1.101698	-1.101698
O	5.905698	1.234390	-1.234390
O	1.100976	3.570477	-3.570477
O	3.570140	3.570477	-1.101698
O	3.570140	1.101698	-3.570477
Cu	4.671116	4.672176	0.000000
Cu	7.006674	2.336088	-2.336088
Eu	3.503337	3.504132	-3.504132
Eu	8.174453	5.840219	-1.168044
Eu	10.510011	3.504132	-1.168044
Eu	5.838895	5.840219	-3.504132
O	8.107650	3.437786	-1.234390
O	3.436534	5.906565	-3.437786
O	5.905698	3.437786	-3.437786
O	5.772092	5.773874	-1.101698
O	10.576814	5.906565	-1.234390
O	5.772092	8.242653	-3.570477
O	8.241256	8.242653	-1.101698
O	8.241256	5.773874	-3.570477
Cu	-4.671116	0.000000	-4.672176
Cu	-2.335558	-2.336088	-7.008263
Eu	-5.838895	-1.168044	-8.176307
Eu	-1.167779	1.168044	-5.840219
Eu	1.167779	-1.168044	-5.840219
Eu	-3.503337	1.168044	-8.176307
O	-1.234582	-1.234390	-5.906565
O	-5.905698	1.234390	-8.109962
O	-3.436534	-1.234390	-8.109962
O	-3.570140	1.101698	-5.773874
O	1.234582	1.234390	-5.906565
O	-3.570140	3.570477	-8.242653
O	-1.100976	3.570477	-5.773874
O	-1.100976	1.101698	-8.242653
Cu	0.000000	4.672176	-4.672176
Cu	2.335558	2.336088	-7.008263
Eu	-1.167779	3.504132	-8.176307
Eu	3.503337	5.840219	-5.840219
Eu	5.838895	3.504132	-5.840219
Eu	1.167779	5.840219	-8.176307
O	3.436534	3.437786	-5.906565
O	-1.234582	5.906565	-8.109962
O	1.234582	3.437786	-8.109962
O	1.100976	5.773874	-5.773874
O	5.905698	5.906565	-5.906565
O	1.100976	8.242653	-8.242653
O	3.570140	8.242653	-5.773874
O	3.570140	5.773874	-8.242653
Cu	4.671116	-4.672176	0.000000
Cu	7.006674	-7.008263	-2.336088
Eu	3.503337	-5.840219	-3.504132
Eu	8.174453	-3.504132	-1.168044
Eu	10.510011	-5.840219	-1.168044
Eu	5.838895	-3.504132	-3.504132
O	8.107650	-5.906565	-1.234390
O	3.436534	-3.437786	-3.437786
O	5.905698	-5.906565	-3.437786
O	5.772092	-3.570477	-1.101698
O	10.576814	-3.437786	-1.234390
O	5.772092	-1.101698	-3.570477
O	8.241256	-1.101698	-1.101698
O	8.241256	-3.570477	-3.570477
Cu	9.342232	0.000000	0.000000
Cu	11.677790	-2.336088	-2.336088
Eu	8.174453	-1.168044	-3.504132
Eu	12.845569	1.168044	-1.168044
Eu	15.181127	-1.168044	-1.168044
Eu	10.510011	1.168044	-3.504132
O	12.778766	-1.234390	-1.234390
O	8.107650	1.234390	-3.437786
O	10.576814	-1.234390	-3.437786
O	10.443208	1.101698	-1.101698
O	15.247930	1.234390	-1.234390
O	10.443208	3.570477	-3.570477
O	12.912372	3.570477	-1.101698
O	12.912372	1.101698	-3.570477
Cu	0.000000	-4.672176	-4.672176
Cu	2.335558	-7.008263	-7.008263
Eu	-1.167779	-5.840219	-8.176307
Eu	3.503337	-3.504132	-5.840219
Eu	5.838895	-5.840219	-5.840219
Eu	1.167779	-3.504132	-8.176307
O	3.436534	-5.906565	-5.906565
O	-1.234582	-3.437786	-8.109962
O	1.234582	-5.906565	-8.109962
O	1.100976	-3.570477	-5.773874
O	5.905698	-3.437786	-5.906565
O	1.100976	-1.101698	-8.242653
O	3.570140	-1.101698	-5.773874
O	3.570140	-3.570477	-8.242653
Cu	4.671116	0.000000	-4.672176
Cu	7.006674	-2.336088	-7.008263
Eu	3.503337	-1.168044	-8.176307
Eu	8.174453	1.168044	-5.840219
Eu	10.510011	-1.168044	-5.840219
Eu	5.838895	1.168044	-8.176307
O	8.107650	-1.234390	-5.906565
O	3.436534	1.234390	-8.109962
O	5.905698	-1.234390	-8.109962
O	5.772092	1.101698	-5.773874
O	10.576814	1.234390	-5.906565
O	5.772092	3.570477	-8.242653
O	8.241256	3.570477	-5.773874
O	8.241256	1.101698	-8.242653
