40

Al	0.000000	0.000000	0.000000
O	0.000000	2.322131	2.322131
O	2.322131	0.000000	2.322131
O	2.322131	2.322131	0.000000
Sr	2.322131	2.322131	2.322131
Al	0.000000	0.000000	4.644262
O	0.000000	2.322131	6.966393
O	2.322131	0.000000	6.966393
O	2.322131	2.322131	4.644262
Sr	2.322131	2.322131	6.966393
Al	0.000000	4.644262	0.000000
O	0.000000	6.966393	2.322131
O	2.322131	4.644262	2.322131
O	2.322131	6.966393	0.000000
Sr	2.322131	6.966393	2.322131
Al	0.000000	4.644262	4.644262
O	0.000000	6.966393	6.966393
O	2.322131	4.644262	6.966393
O	2.322131	6.966393	4.644262
Sr	2.322131	6.966393	6.966393
Al	4.644262	0.000000	0.000000
O	4.644262	2.322131	2.322131
O	6.966393	0.000000	2.322131
O	6.966393	2.322131	0.000000
Sr	6.966393	2.322131	2.322131
Al	4.644262	0.000000	4.644262
O	4.644262	2.322131	6.966393
O	6.966393	0.000000	6.966393
O	6.966393	2.322131	4.644262
Sr	6.966393	2.322131	6.966393
Al	4.644262	4.644262	0.000000
O	4.644262	6.966393	2.322131
O	6.966393	4.644262	2.322131
O	6.966393	6.966393	0.000000
Sr	6.966393	6.966393	2.322131
Al	4.644262	4.644262	4.644262
O	4.644262	6.966393	6.966393
O	6.966393	4.644262	6.966393
O	6.966393	6.966393	4.644262
Sr	6.966393	6.966393	6.966393
