40

As	2.064560	2.064560	2.064560
F	0.000000	2.064560	2.064560
F	2.064560	0.000000	2.064560
F	2.064560	2.064560	0.000000
O	0.000000	0.000000	0.000000
As	2.064560	2.064560	6.193681
F	0.000000	2.064560	6.193681
F	2.064560	0.000000	6.193681
F	2.064560	2.064560	4.129121
O	0.000000	0.000000	4.129121
As	2.064560	6.193681	2.064560
F	0.000000	6.193681	2.064560
F	2.064560	4.129121	2.064560
F	2.064560	6.193681	0.000000
O	0.000000	4.129121	0.000000
As	2.064560	6.193681	6.193681
F	0.000000	6.193681	6.193681
F	2.064560	4.129121	6.193681
F	2.064560	6.193681	4.129121
O	0.000000	4.129121	4.129121
As	6.193681	2.064560	2.064560
F	4.129121	2.064560	2.064560
F	6.193681	0.000000	2.064560
F	6.193681	2.064560	0.000000
O	4.129121	0.000000	0.000000
As	6.193681	2.064560	6.193681
F	4.129121	2.064560	6.193681
F	6.193681	0.000000	6.193681
F	6.193681	2.064560	4.129121
O	4.129121	0.000000	4.129121
As	6.193681	6.193681	2.064560
F	4.129121	6.193681	2.064560
F	6.193681	4.129121	2.064560
F	6.193681	6.193681	0.000000
O	4.129121	4.129121	0.000000
As	6.193681	6.193681	6.193681
F	4.129121	6.193681	6.193681
F	6.193681	4.129121	6.193681
F	6.193681	6.193681	4.129121
O	4.129121	4.129121	4.129121
