40

Mg	1.861357	1.861357	1.861357
Nb	0.000000	0.000000	0.000000
O	1.861357	1.861357	0.000000
O	1.861357	0.000000	1.861357
O	0.000000	1.861357	1.861357
Mg	1.861357	1.861357	5.584070
Nb	0.000000	0.000000	3.722713
O	1.861357	1.861357	3.722713
O	1.861357	0.000000	5.584070
O	0.000000	1.861357	5.584070
Mg	1.861357	5.584070	1.861357
Nb	0.000000	3.722713	0.000000
O	1.861357	5.584070	0.000000
O	1.861357	3.722713	1.861357
O	0.000000	5.584070	1.861357
Mg	1.861357	5.584070	5.584070
Nb	0.000000	3.722713	3.722713
O	1.861357	5.584070	3.722713
O	1.861357	3.722713	5.584070
O	0.000000	5.584070	5.584070
Mg	5.584070	1.861357	1.861357
Nb	3.722713	0.000000	0.000000
O	5.584070	1.861357	0.000000
O	5.584070	0.000000	1.861357
O	3.722713	1.861357	1.861357
Mg	5.584070	1.861357	5.584070
Nb	3.722713	0.000000	3.722713
O	5.584070	1.861357	3.722713
O	5.584070	0.000000	5.584070
O	3.722713	1.861357	5.584070
Mg	5.584070	5.584070	1.861357
Nb	3.722713	3.722713	0.000000
O	5.584070	5.584070	0.000000
O	5.584070	3.722713	1.861357
O	3.722713	5.584070	1.861357
Mg	5.584070	5.584070	5.584070
Nb	3.722713	3.722713	3.722713
O	5.584070	5.584070	3.722713
O	5.584070	3.722713	5.584070
O	3.722713	5.584070	5.584070
