112

Be	0.000000	0.000000	0.000000
Be	2.287542	-2.287690	-2.287690
O	1.069471	1.069539	-1.069539
O	-1.218071	1.218141	-3.357230
O	3.357014	-1.218141	-1.218141
O	1.218071	-1.218141	-3.357230
O	1.069471	3.505832	-3.505832
O	3.505614	1.069539	-3.505832
O	3.505614	3.505832	-1.069539
O	5.793156	1.218141	-1.218141
Pm	-1.143771	-1.143840	-3.431531
Pm	3.431314	1.143840	-1.143840
Pm	1.143771	1.143840	-3.431531
Pm	5.718856	-1.143840	-1.143840
Be	4.575085	4.575372	0.000000
Be	6.862627	2.287682	-2.287690
O	5.644556	5.644911	-1.069539
O	3.357013	5.793513	-3.357230
O	7.932098	3.357231	-1.218141
O	5.793156	3.357231	-3.357230
O	5.644556	8.081204	-3.505832
O	8.080699	5.644911	-3.505832
O	8.080699	8.081204	-1.069539
O	10.368241	5.793513	-1.218141
Pm	3.431314	3.431532	-3.431531
Pm	8.006399	5.719212	-1.143840
Pm	5.718856	5.719212	-3.431531
Pm	10.293941	3.431532	-1.143840
Be	-4.575085	0.000000	-4.575372
Be	-2.287542	-2.287690	-6.863063
O	-3.505614	1.069539	-5.644911
O	-5.793156	1.218141	-7.932602
O	-1.218071	-1.218141	-5.793513
O	-3.357014	-1.218141	-7.932602
O	-3.505614	3.505832	-8.081204
O	-1.069471	1.069539	-8.081204
O	-1.069471	3.505832	-5.644911
O	1.218071	1.218141	-5.793513
Pm	-5.718856	-1.143840	-8.006903
Pm	-1.143771	1.143840	-5.719212
Pm	-3.431314	1.143840	-8.006903
Pm	1.143771	-1.143840	-5.719212
Be	0.000000	4.575372	-4.575372
Be	2.287542	2.287682	-6.863063
O	1.069471	5.644911	-5.644911
O	-1.218071	5.793513	-7.932602
O	3.357014	3.357231	-5.793513
O	1.218071	3.357231	-7.932602
O	1.069471	8.081204	-8.081204
O	3.505614	5.644911	-8.081204
O	3.505614	8.081204	-5.644911
O	5.793156	5.793513	-5.793513
Pm	-1.143771	3.431532	-8.006903
Pm	3.431314	5.719212	-5.719212
Pm	1.143771	5.719212	-8.006903
Pm	5.718856	3.431532	-5.719212
Be	4.575085	-4.575372	0.000000
Be	6.862627	-6.863063	-2.287690
O	5.644556	-3.505833	-1.069539
O	3.357013	-3.357231	-3.357230
O	7.932098	-5.793513	-1.218141
O	5.793156	-5.793513	-3.357230
O	5.644556	-1.069540	-3.505832
O	8.080699	-3.505833	-3.505832
O	8.080699	-1.069540	-1.069539
O	10.368241	-3.357231	-1.218141
Pm	3.431314	-5.719212	-3.431531
Pm	8.006399	-3.431532	-1.143840
Pm	5.718856	-3.431532	-3.431531
Pm	10.293941	-5.719212	-1.143840
Be	9.150170	0.000000	0.000000
Be	11.437712	-2.287690	-2.287690
O	10.219641	1.069539	-1.069539
O	7.932098	1.218141	-3.357230
O	12.507183	-1.218141	-1.218141
O	10.368241	-1.218141	-3.357230
O	10.219641	3.505832	-3.505832
O	12.655784	1.069539	-3.505832
O	12.655784	3.505832	-1.069539
O	14.943326	1.218141	-1.218141
Pm	8.006398	-1.143840	-3.431531
Pm	12.581483	1.143840	-1.143840
Pm	10.293941	1.143840	-3.431531
Pm	14.869026	-1.143840	-1.143840
Be	0.000000	-4.575372	-4.575372
Be	2.287542	-6.863063	-6.863063
O	1.069471	-3.505833	-5.644911
O	-1.218071	-3.357231	-7.932602
O	3.357014	-5.793513	-5.793513
O	1.218071	-5.793513	-7.932602
O	1.069471	-1.069540	-8.081204
O	3.505614	-3.505833	-8.081204
O	3.505614	-1.069540	-5.644911
O	5.793156	-3.357231	-5.793513
Pm	-1.143771	-5.719212	-8.006903
Pm	3.431314	-3.431532	-5.719212
Pm	1.143771	-3.431532	-8.006903
Pm	5.718856	-5.719212	-5.719212
Be	4.575085	0.000000	-4.575372
Be	6.862627	-2.287690	-6.863063
O	5.644556	1.069539	-5.644911
O	3.357013	1.218141	-7.932602
O	7.932098	-1.218141	-5.793513
O	5.793156	-1.218141	-7.932602
O	5.644556	3.505832	-8.081204
O	8.080699	1.069539	-8.081204
O	8.080699	3.505832	-5.644911
O	10.368241	1.218141	-5.793513
Pm	3.431314	-1.143840	-8.006903
Pm	8.006399	1.143840	-5.719212
Pm	5.718856	1.143840	-8.006903
Pm	10.293941	-1.143840	-5.719212
