40

O	0.000000	2.032903	2.032903
O	2.032903	0.000000	2.032903
O	2.032903	2.032903	0.000000
Se	2.032903	2.032903	2.032903
Y	0.000000	0.000000	0.000000
O	0.000000	2.032903	6.098709
O	2.032903	0.000000	6.098709
O	2.032903	2.032903	4.065806
Se	2.032903	2.032903	6.098709
Y	0.000000	0.000000	4.065806
O	0.000000	6.098709	2.032903
O	2.032903	4.065806	2.032903
O	2.032903	6.098709	0.000000
Se	2.032903	6.098709	2.032903
Y	0.000000	4.065806	0.000000
O	0.000000	6.098709	6.098709
O	2.032903	4.065806	6.098709
O	2.032903	6.098709	4.065806
Se	2.032903	6.098709	6.098709
Y	0.000000	4.065806	4.065806
O	4.065806	2.032903	2.032903
O	6.098709	0.000000	2.032903
O	6.098709	2.032903	0.000000
Se	6.098709	2.032903	2.032903
Y	4.065806	0.000000	0.000000
O	4.065806	2.032903	6.098709
O	6.098709	0.000000	6.098709
O	6.098709	2.032903	4.065806
Se	6.098709	2.032903	6.098709
Y	4.065806	0.000000	4.065806
O	4.065806	6.098709	2.032903
O	6.098709	4.065806	2.032903
O	6.098709	6.098709	0.000000
Se	6.098709	6.098709	2.032903
Y	4.065806	4.065806	0.000000
O	4.065806	6.098709	6.098709
O	6.098709	4.065806	6.098709
O	6.098709	6.098709	4.065806
Se	6.098709	6.098709	6.098709
Y	4.065806	4.065806	4.065806
