112

Ge	0.000000	0.000000	0.000000
Ge	2.183303	-2.183659	-2.183659
O	-0.972594	0.972247	-3.395071
O	3.394022	-0.972247	-0.972247
O	0.972594	-0.972247	-3.395071
O	1.210719	1.211412	-1.211412
O	5.339201	0.972247	-0.972247
O	1.210719	3.155916	-3.155916
O	3.155898	3.155916	-1.211412
O	3.155898	1.211412	-3.155916
Ti	-1.091652	-1.091829	-3.275488
Ti	1.091652	1.091829	-3.275488
Ti	3.274955	1.091829	-1.091829
Ti	5.458258	-1.091829	-1.091829
Ge	4.366608	4.367322	0.000000
Ge	6.549912	2.183663	-2.183659
O	3.394014	5.339569	-3.395071
O	7.760630	3.395075	-0.972247
O	5.339203	3.395075	-3.395071
O	5.577327	5.578734	-1.211412
O	9.705809	5.339569	-0.972247
O	5.577327	7.523238	-3.155916
O	7.522506	7.523238	-1.211412
O	7.522506	5.578734	-3.155916
Ti	3.274957	3.275492	-3.275488
Ti	5.458260	5.459151	-3.275488
Ti	7.641563	5.459151	-1.091829
Ti	9.824866	3.275492	-1.091829
Ge	-4.366608	0.000000	-4.367322
Ge	-2.183305	-2.183659	-6.550981
O	-5.339203	0.972247	-7.762392
O	-0.972587	-0.972247	-5.339569
O	-3.394014	-0.972247	-7.762392
O	-3.155890	1.211412	-5.578734
O	0.972592	0.972247	-5.339569
O	-3.155890	3.155916	-7.523238
O	-1.210711	3.155916	-5.578734
O	-1.210711	1.211412	-7.523238
Ti	-5.458260	-1.091829	-7.642810
Ti	-3.274957	1.091829	-7.642810
Ti	-1.091654	1.091829	-5.459151
Ti	1.091649	-1.091829	-5.459151
Ge	0.000000	4.367322	-4.367322
Ge	2.183303	2.183663	-6.550981
O	-0.972594	5.339569	-7.762392
O	3.394022	3.395075	-5.339569
O	0.972594	3.395075	-7.762392
O	1.210719	5.578734	-5.578734
O	5.339201	5.339569	-5.339569
O	1.210719	7.523238	-7.523238
O	3.155898	7.523238	-5.578734
O	3.155898	5.578734	-7.523238
Ti	-1.091652	3.275492	-7.642810
Ti	1.091652	5.459151	-7.642810
Ti	3.274955	5.459151	-5.459151
Ti	5.458258	3.275492	-5.459151
Ge	4.366608	-4.367322	0.000000
Ge	6.549912	-6.550981	-2.183659
O	3.394014	-3.395075	-3.395071
O	7.760630	-5.339569	-0.972247
O	5.339203	-5.339569	-3.395071
O	5.577327	-3.155910	-1.211412
O	9.705809	-3.395075	-0.972247
O	5.577327	-1.211406	-3.155916
O	7.522506	-1.211406	-1.211412
O	7.522506	-3.155910	-3.155916
Ti	3.274957	-5.459151	-3.275488
Ti	5.458260	-3.275492	-3.275488
Ti	7.641563	-3.275492	-1.091829
Ti	9.824866	-5.459151	-1.091829
Ge	8.733217	0.000000	0.000000
Ge	10.916520	-2.183659	-2.183659
O	7.760622	0.972247	-3.395071
O	12.127239	-0.972247	-0.972247
O	9.705811	-0.972247	-3.395071
O	9.943935	1.211412	-1.211412
O	14.072417	0.972247	-0.972247
O	9.943935	3.155916	-3.155916
O	11.889114	3.155916	-1.211412
O	11.889114	1.211412	-3.155916
Ti	7.641565	-1.091829	-3.275488
Ti	9.824868	1.091829	-3.275488
Ti	12.008171	1.091829	-1.091829
Ti	14.191475	-1.091829	-1.091829
Ge	0.000000	-4.367322	-4.367322
Ge	2.183303	-6.550981	-6.550981
O	-0.972594	-3.395075	-7.762392
O	3.394022	-5.339569	-5.339569
O	0.972594	-5.339569	-7.762392
O	1.210719	-3.155910	-5.578734
O	5.339201	-3.395075	-5.339569
O	1.210719	-1.211406	-7.523238
O	3.155898	-1.211406	-5.578734
O	3.155898	-3.155910	-7.523238
Ti	-1.091652	-5.459151	-7.642810
Ti	1.091652	-3.275492	-7.642810
Ti	3.274955	-3.275492	-5.459151
Ti	5.458258	-5.459151	-5.459151
Ge	4.366608	0.000000	-4.367322
Ge	6.549912	-2.183659	-6.550981
O	3.394014	0.972247	-7.762392
O	7.760630	-0.972247	-5.339569
O	5.339203	-0.972247	-7.762392
O	5.577327	1.211412	-5.578734
O	9.705809	0.972247	-5.339569
O	5.577327	3.155916	-7.523238
O	7.522506	3.155916	-5.578734
O	7.522506	1.211412	-7.523238
Ti	3.274957	-1.091829	-7.642810
Ti	5.458260	1.091829	-7.642810
Ti	7.641563	1.091829	-5.459151
Ti	9.824866	-1.091829	-5.459151
