40

Ni	0.000000	0.000000	0.000000
O	0.000000	1.986033	1.986033
O	1.986033	0.000000	1.986033
O	1.986033	1.986033	0.000000
Ta	1.986033	1.986033	1.986033
Ni	0.000000	0.000000	3.972066
O	0.000000	1.986033	5.958099
O	1.986033	0.000000	5.958099
O	1.986033	1.986033	3.972066
Ta	1.986033	1.986033	5.958099
Ni	0.000000	3.972066	0.000000
O	0.000000	5.958099	1.986033
O	1.986033	3.972066	1.986033
O	1.986033	5.958099	0.000000
Ta	1.986033	5.958099	1.986033
Ni	0.000000	3.972066	3.972066
O	0.000000	5.958099	5.958099
O	1.986033	3.972066	5.958099
O	1.986033	5.958099	3.972066
Ta	1.986033	5.958099	5.958099
Ni	3.972066	0.000000	0.000000
O	3.972066	1.986033	1.986033
O	5.958099	0.000000	1.986033
O	5.958099	1.986033	0.000000
Ta	5.958099	1.986033	1.986033
Ni	3.972066	0.000000	3.972066
O	3.972066	1.986033	5.958099
O	5.958099	0.000000	5.958099
O	5.958099	1.986033	3.972066
Ta	5.958099	1.986033	5.958099
Ni	3.972066	3.972066	0.000000
O	3.972066	5.958099	1.986033
O	5.958099	3.972066	1.986033
O	5.958099	5.958099	0.000000
Ta	5.958099	5.958099	1.986033
Ni	3.972066	3.972066	3.972066
O	3.972066	5.958099	5.958099
O	5.958099	3.972066	5.958099
O	5.958099	5.958099	3.972066
Ta	5.958099	5.958099	5.958099
