40

Cl	0.000000	0.000000	0.000000
O	0.000000	1.937267	1.937267
O	1.937267	0.000000	1.937267
O	1.937267	1.937267	0.000000
Os	1.937267	1.937267	1.937267
Cl	0.000000	0.000000	3.874535
O	0.000000	1.937267	5.811802
O	1.937267	0.000000	5.811802
O	1.937267	1.937267	3.874535
Os	1.937267	1.937267	5.811802
Cl	0.000000	3.874535	0.000000
O	0.000000	5.811802	1.937267
O	1.937267	3.874535	1.937267
O	1.937267	5.811802	0.000000
Os	1.937267	5.811802	1.937267
Cl	0.000000	3.874535	3.874535
O	0.000000	5.811802	5.811802
O	1.937267	3.874535	5.811802
O	1.937267	5.811802	3.874535
Os	1.937267	5.811802	5.811802
Cl	3.874535	0.000000	0.000000
O	3.874535	1.937267	1.937267
O	5.811802	0.000000	1.937267
O	5.811802	1.937267	0.000000
Os	5.811802	1.937267	1.937267
Cl	3.874535	0.000000	3.874535
O	3.874535	1.937267	5.811802
O	5.811802	0.000000	5.811802
O	5.811802	1.937267	3.874535
Os	5.811802	1.937267	5.811802
Cl	3.874535	3.874535	0.000000
O	3.874535	5.811802	1.937267
O	5.811802	3.874535	1.937267
O	5.811802	5.811802	0.000000
Os	5.811802	5.811802	1.937267
Cl	3.874535	3.874535	3.874535
O	3.874535	5.811802	5.811802
O	5.811802	3.874535	5.811802
O	5.811802	5.811802	3.874535
Os	5.811802	5.811802	5.811802
