40

B	0.000000	0.000000	0.000000
O	0.000000	2.129624	2.129624
O	2.129624	0.000000	2.129624
O	2.129624	2.129624	0.000000
Pb	2.129624	2.129624	2.129624
B	0.000000	0.000000	4.259247
O	0.000000	2.129624	6.388871
O	2.129624	0.000000	6.388871
O	2.129624	2.129624	4.259247
Pb	2.129624	2.129624	6.388871
B	0.000000	4.259247	0.000000
O	0.000000	6.388871	2.129624
O	2.129624	4.259247	2.129624
O	2.129624	6.388871	0.000000
Pb	2.129624	6.388871	2.129624
B	0.000000	4.259247	4.259247
O	0.000000	6.388871	6.388871
O	2.129624	4.259247	6.388871
O	2.129624	6.388871	4.259247
Pb	2.129624	6.388871	6.388871
B	4.259247	0.000000	0.000000
O	4.259247	2.129624	2.129624
O	6.388871	0.000000	2.129624
O	6.388871	2.129624	0.000000
Pb	6.388871	2.129624	2.129624
B	4.259247	0.000000	4.259247
O	4.259247	2.129624	6.388871
O	6.388871	0.000000	6.388871
O	6.388871	2.129624	4.259247
Pb	6.388871	2.129624	6.388871
B	4.259247	4.259247	0.000000
O	4.259247	6.388871	2.129624
O	6.388871	4.259247	2.129624
O	6.388871	6.388871	0.000000
Pb	6.388871	6.388871	2.129624
B	4.259247	4.259247	4.259247
O	4.259247	6.388871	6.388871
O	6.388871	4.259247	6.388871
O	6.388871	6.388871	4.259247
Pb	6.388871	6.388871	6.388871
