40

B	1.783479	1.783479	1.783479
O	0.000000	1.783479	1.783479
O	1.783479	0.000000	1.783479
O	1.783479	1.783479	0.000000
Pb	0.000000	0.000000	0.000000
B	1.783479	1.783479	5.350437
O	0.000000	1.783479	5.350437
O	1.783479	0.000000	5.350437
O	1.783479	1.783479	3.566958
Pb	0.000000	0.000000	3.566958
B	1.783479	5.350437	1.783479
O	0.000000	5.350437	1.783479
O	1.783479	3.566958	1.783479
O	1.783479	5.350437	0.000000
Pb	0.000000	3.566958	0.000000
B	1.783479	5.350437	5.350437
O	0.000000	5.350437	5.350437
O	1.783479	3.566958	5.350437
O	1.783479	5.350437	3.566958
Pb	0.000000	3.566958	3.566958
B	5.350437	1.783479	1.783479
O	3.566958	1.783479	1.783479
O	5.350437	0.000000	1.783479
O	5.350437	1.783479	0.000000
Pb	3.566958	0.000000	0.000000
B	5.350437	1.783479	5.350437
O	3.566958	1.783479	5.350437
O	5.350437	0.000000	5.350437
O	5.350437	1.783479	3.566958
Pb	3.566958	0.000000	3.566958
B	5.350437	5.350437	1.783479
O	3.566958	5.350437	1.783479
O	5.350437	3.566958	1.783479
O	5.350437	5.350437	0.000000
Pb	3.566958	3.566958	0.000000
B	5.350437	5.350437	5.350437
O	3.566958	5.350437	5.350437
O	5.350437	3.566958	5.350437
O	5.350437	5.350437	3.566958
Pb	3.566958	3.566958	3.566958
