40

Ba	0.000000	0.000000	0.000000
O	0.000000	2.179239	2.179239
O	2.179239	0.000000	2.179239
O	2.179239	2.179239	0.000000
Tl	2.179239	2.179239	2.179239
Ba	0.000000	0.000000	4.358478
O	0.000000	2.179239	6.537717
O	2.179239	0.000000	6.537717
O	2.179239	2.179239	4.358478
Tl	2.179239	2.179239	6.537717
Ba	0.000000	4.358478	0.000000
O	0.000000	6.537717	2.179239
O	2.179239	4.358478	2.179239
O	2.179239	6.537717	0.000000
Tl	2.179239	6.537717	2.179239
Ba	0.000000	4.358478	4.358478
O	0.000000	6.537717	6.537717
O	2.179239	4.358478	6.537717
O	2.179239	6.537717	4.358478
Tl	2.179239	6.537717	6.537717
Ba	4.358478	0.000000	0.000000
O	4.358478	2.179239	2.179239
O	6.537717	0.000000	2.179239
O	6.537717	2.179239	0.000000
Tl	6.537717	2.179239	2.179239
Ba	4.358478	0.000000	4.358478
O	4.358478	2.179239	6.537717
O	6.537717	0.000000	6.537717
O	6.537717	2.179239	4.358478
Tl	6.537717	2.179239	6.537717
Ba	4.358478	4.358478	0.000000
O	4.358478	6.537717	2.179239
O	6.537717	4.358478	2.179239
O	6.537717	6.537717	0.000000
Tl	6.537717	6.537717	2.179239
Ba	4.358478	4.358478	4.358478
O	4.358478	6.537717	6.537717
O	6.537717	4.358478	6.537717
O	6.537717	6.537717	4.358478
Tl	6.537717	6.537717	6.537717
