40

Au	2.058399	2.058399	2.058399
In	0.000000	0.000000	0.000000
O	2.058399	2.058399	0.000000
O	2.058399	0.000000	2.058399
O	0.000000	2.058399	2.058399
Au	2.058399	2.058399	6.175198
In	0.000000	0.000000	4.116799
O	2.058399	2.058399	4.116799
O	2.058399	0.000000	6.175198
O	0.000000	2.058399	6.175198
Au	2.058399	6.175198	2.058399
In	0.000000	4.116799	0.000000
O	2.058399	6.175198	0.000000
O	2.058399	4.116799	2.058399
O	0.000000	6.175198	2.058399
Au	2.058399	6.175198	6.175198
In	0.000000	4.116799	4.116799
O	2.058399	6.175198	4.116799
O	2.058399	4.116799	6.175198
O	0.000000	6.175198	6.175198
Au	6.175198	2.058399	2.058399
In	4.116799	0.000000	0.000000
O	6.175198	2.058399	0.000000
O	6.175198	0.000000	2.058399
O	4.116799	2.058399	2.058399
Au	6.175198	2.058399	6.175198
In	4.116799	0.000000	4.116799
O	6.175198	2.058399	4.116799
O	6.175198	0.000000	6.175198
O	4.116799	2.058399	6.175198
Au	6.175198	6.175198	2.058399
In	4.116799	4.116799	0.000000
O	6.175198	6.175198	0.000000
O	6.175198	4.116799	2.058399
O	4.116799	6.175198	2.058399
Au	6.175198	6.175198	6.175198
In	4.116799	4.116799	4.116799
O	6.175198	6.175198	4.116799
O	6.175198	4.116799	6.175198
O	4.116799	6.175198	6.175198
