40

Eu	2.142568	2.142568	2.142568
O	2.142568	2.142568	0.000000
O	2.142568	0.000000	2.142568
O	0.000000	2.142568	2.142568
Zr	0.000000	0.000000	0.000000
Eu	2.142568	2.142568	6.427703
O	2.142568	2.142568	4.285135
O	2.142568	0.000000	6.427703
O	0.000000	2.142568	6.427703
Zr	0.000000	0.000000	4.285135
Eu	2.142568	6.427703	2.142568
O	2.142568	6.427703	0.000000
O	2.142568	4.285135	2.142568
O	0.000000	6.427703	2.142568
Zr	0.000000	4.285135	0.000000
Eu	2.142568	6.427703	6.427703
O	2.142568	6.427703	4.285135
O	2.142568	4.285135	6.427703
O	0.000000	6.427703	6.427703
Zr	0.000000	4.285135	4.285135
Eu	6.427703	2.142568	2.142568
O	6.427703	2.142568	0.000000
O	6.427703	0.000000	2.142568
O	4.285135	2.142568	2.142568
Zr	4.285135	0.000000	0.000000
Eu	6.427703	2.142568	6.427703
O	6.427703	2.142568	4.285135
O	6.427703	0.000000	6.427703
O	4.285135	2.142568	6.427703
Zr	4.285135	0.000000	4.285135
Eu	6.427703	6.427703	2.142568
O	6.427703	6.427703	0.000000
O	6.427703	4.285135	2.142568
O	4.285135	6.427703	2.142568
Zr	4.285135	4.285135	0.000000
Eu	6.427703	6.427703	6.427703
O	6.427703	6.427703	4.285135
O	6.427703	4.285135	6.427703
O	4.285135	6.427703	6.427703
Zr	4.285135	4.285135	4.285135
