40

Cu	0.000000	0.000000	0.000000
Dy	2.149397	2.149397	2.149397
O	2.149397	2.149397	0.000000
O	2.149397	0.000000	2.149397
O	0.000000	2.149397	2.149397
Cu	0.000000	0.000000	4.298797
Dy	2.149397	2.149397	6.448193
O	2.149397	2.149397	4.298797
O	2.149397	0.000000	6.448193
O	0.000000	2.149397	6.448193
Cu	0.000000	4.298797	0.000000
Dy	2.149397	6.448193	2.149397
O	2.149397	6.448193	0.000000
O	2.149397	4.298797	2.149397
O	0.000000	6.448193	2.149397
Cu	0.000000	4.298797	4.298797
Dy	2.149397	6.448193	6.448193
O	2.149397	6.448193	4.298797
O	2.149397	4.298797	6.448193
O	0.000000	6.448193	6.448193
Cu	4.298797	0.000000	0.000000
Dy	6.448193	2.149397	2.149397
O	6.448193	2.149397	0.000000
O	6.448193	0.000000	2.149397
O	4.298797	2.149397	2.149397
Cu	4.298797	0.000000	4.298797
Dy	6.448193	2.149397	6.448193
O	6.448193	2.149397	4.298797
O	6.448193	0.000000	6.448193
O	4.298797	2.149397	6.448193
Cu	4.298797	4.298797	0.000000
Dy	6.448193	6.448193	2.149397
O	6.448193	6.448193	0.000000
O	6.448193	4.298797	2.149397
O	4.298797	6.448193	2.149397
Cu	4.298797	4.298797	4.298797
Dy	6.448193	6.448193	6.448193
O	6.448193	6.448193	4.298797
O	6.448193	4.298797	6.448193
O	4.298797	6.448193	6.448193
