40

Ga	0.000000	0.000000	0.000000
O	2.217247	2.217247	0.000000
O	2.217247	0.000000	2.217247
O	0.000000	2.217247	2.217247
Sm	2.217247	2.217247	2.217247
Ga	0.000000	0.000000	4.434502
O	2.217247	2.217247	4.434502
O	2.217247	0.000000	6.651749
O	0.000000	2.217247	6.651749
Sm	2.217247	2.217247	6.651749
Ga	0.000000	4.434502	0.000000
O	2.217247	6.651749	0.000000
O	2.217247	4.434502	2.217247
O	0.000000	6.651749	2.217247
Sm	2.217247	6.651749	2.217247
Ga	0.000000	4.434502	4.434502
O	2.217247	6.651749	4.434502
O	2.217247	4.434502	6.651749
O	0.000000	6.651749	6.651749
Sm	2.217247	6.651749	6.651749
Ga	4.434502	0.000000	0.000000
O	6.651749	2.217247	0.000000
O	6.651749	0.000000	2.217247
O	4.434502	2.217247	2.217247
Sm	6.651749	2.217247	2.217247
Ga	4.434502	0.000000	4.434502
O	6.651749	2.217247	4.434502
O	6.651749	0.000000	6.651749
O	4.434502	2.217247	6.651749
Sm	6.651749	2.217247	6.651749
Ga	4.434502	4.434502	0.000000
O	6.651749	6.651749	0.000000
O	6.651749	4.434502	2.217247
O	4.434502	6.651749	2.217247
Sm	6.651749	6.651749	2.217247
Ga	4.434502	4.434502	4.434502
O	6.651749	6.651749	4.434502
O	6.651749	4.434502	6.651749
O	4.434502	6.651749	6.651749
Sm	6.651749	6.651749	6.651749
