40

La	2.221159	2.221159	2.221159
O	2.221159	2.221159	0.000000
O	0.000000	2.221159	2.221159
O	2.221159	0.000000	2.221159
W	0.000000	0.000000	0.000000
La	2.221159	2.221159	6.663477
O	2.221159	2.221159	4.442318
O	0.000000	2.221159	6.663477
O	2.221159	0.000000	6.663477
W	0.000000	0.000000	4.442318
La	2.221159	6.663477	2.221159
O	2.221159	6.663477	0.000000
O	0.000000	6.663477	2.221159
O	2.221159	4.442318	2.221159
W	0.000000	4.442318	0.000000
La	2.221159	6.663477	6.663477
O	2.221159	6.663477	4.442318
O	0.000000	6.663477	6.663477
O	2.221159	4.442318	6.663477
W	0.000000	4.442318	4.442318
La	6.663477	2.221159	2.221159
O	6.663477	2.221159	0.000000
O	4.442318	2.221159	2.221159
O	6.663477	0.000000	2.221159
W	4.442318	0.000000	0.000000
La	6.663477	2.221159	6.663477
O	6.663477	2.221159	4.442318
O	4.442318	2.221159	6.663477
O	6.663477	0.000000	6.663477
W	4.442318	0.000000	4.442318
La	6.663477	6.663477	2.221159
O	6.663477	6.663477	0.000000
O	4.442318	6.663477	2.221159
O	6.663477	4.442318	2.221159
W	4.442318	4.442318	0.000000
La	6.663477	6.663477	6.663477
O	6.663477	6.663477	4.442318
O	4.442318	6.663477	6.663477
O	6.663477	4.442318	6.663477
W	4.442318	4.442318	4.442318
