40

Be	1.715682	1.715682	1.715682
O	1.715682	1.715682	0.000000
O	1.715682	0.000000	1.715682
O	0.000000	1.715682	1.715682
Re	0.000000	0.000000	0.000000
Be	1.715682	1.715682	5.147045
O	1.715682	1.715682	3.431363
O	1.715682	0.000000	5.147045
O	0.000000	1.715682	5.147045
Re	0.000000	0.000000	3.431363
Be	1.715682	5.147045	1.715682
O	1.715682	5.147045	0.000000
O	1.715682	3.431363	1.715682
O	0.000000	5.147045	1.715682
Re	0.000000	3.431363	0.000000
Be	1.715682	5.147045	5.147045
O	1.715682	5.147045	3.431363
O	1.715682	3.431363	5.147045
O	0.000000	5.147045	5.147045
Re	0.000000	3.431363	3.431363
Be	5.147045	1.715682	1.715682
O	5.147045	1.715682	0.000000
O	5.147045	0.000000	1.715682
O	3.431363	1.715682	1.715682
Re	3.431363	0.000000	0.000000
Be	5.147045	1.715682	5.147045
O	5.147045	1.715682	3.431363
O	5.147045	0.000000	5.147045
O	3.431363	1.715682	5.147045
Re	3.431363	0.000000	3.431363
Be	5.147045	5.147045	1.715682
O	5.147045	5.147045	0.000000
O	5.147045	3.431363	1.715682
O	3.431363	5.147045	1.715682
Re	3.431363	3.431363	0.000000
Be	5.147045	5.147045	5.147045
O	5.147045	5.147045	3.431363
O	5.147045	3.431363	5.147045
O	3.431363	5.147045	5.147045
Re	3.431363	3.431363	3.431363
