112

K	0.000000	0.000000	0.000000
K	2.578952	-2.566722	-2.566722
O	4.144838	-1.074686	-1.074686
O	-1.013065	1.074686	-4.058757
O	1.013065	-1.074686	-4.058757
O	1.565886	1.492036	-1.492036
O	6.170968	1.074686	-1.074686
O	1.565886	3.641408	-3.641408
O	3.592017	3.641408	-1.492036
O	3.592017	1.492036	-3.641408
U	-1.289476	-1.283361	-3.850083
U	3.868427	1.283361	-1.283361
U	6.447379	-1.283361	-1.283361
U	1.289476	1.283361	-3.850083
K	5.157903	5.133444	0.000000
K	7.736855	2.566722	-2.566722
O	9.302741	4.058757	-1.074686
O	4.144838	6.208130	-4.058757
O	6.170968	4.058757	-4.058757
O	6.723790	6.625479	-1.492036
O	11.328872	6.208130	-1.074686
O	6.723790	8.774851	-3.641408
O	8.749920	8.774851	-1.492036
O	8.749920	6.625479	-3.641408
U	3.868427	3.850083	-3.850083
U	9.026331	6.416804	-1.283361
U	11.605282	3.850083	-1.283361
U	6.447379	6.416804	-3.850083
K	-5.157903	0.000000	-5.133444
K	-2.578952	-2.566722	-7.700165
O	-1.013065	-1.074686	-6.208130
O	-6.170968	1.074686	-9.192201
O	-4.144838	-1.074686	-9.192201
O	-3.592017	1.492036	-6.625479
O	1.013065	1.074686	-6.208130
O	-3.592017	3.641408	-8.774851
O	-1.565886	3.641408	-6.625479
O	-1.565886	1.492036	-8.774851
U	-6.447379	-1.283361	-8.983526
U	-1.289476	1.283361	-6.416804
U	1.289476	-1.283361	-6.416804
U	-3.868427	1.283361	-8.983526
K	0.000000	5.133444	-5.133444
K	2.578952	2.566722	-7.700165
O	4.144838	4.058757	-6.208130
O	-1.013065	6.208130	-9.192201
O	1.013065	4.058757	-9.192201
O	1.565886	6.625479	-6.625479
O	6.170968	6.208130	-6.208130
O	1.565886	8.774851	-8.774851
O	3.592017	8.774851	-6.625479
O	3.592017	6.625479	-8.774851
U	-1.289476	3.850083	-8.983526
U	3.868427	6.416804	-6.416804
U	6.447379	3.850083	-6.416804
U	1.289476	6.416804	-8.983526
K	5.157903	-5.133444	0.000000
K	7.736855	-7.700165	-2.566722
O	9.302741	-6.208130	-1.074686
O	4.144838	-4.058757	-4.058757
O	6.170968	-6.208130	-4.058757
O	6.723790	-3.641408	-1.492036
O	11.328872	-4.058757	-1.074686
O	6.723790	-1.492036	-3.641408
O	8.749920	-1.492036	-1.492036
O	8.749920	-3.641408	-3.641408
U	3.868427	-6.416804	-3.850083
U	9.026331	-3.850083	-1.283361
U	11.605282	-6.416804	-1.283361
U	6.447379	-3.850083	-3.850083
K	10.315806	0.000000	0.000000
K	12.894758	-2.566722	-2.566722
O	14.460644	-1.074686	-1.074686
O	9.302741	1.074686	-4.058757
O	11.328872	-1.074686	-4.058757
O	11.881693	1.492036	-1.492036
O	16.486775	1.074686	-1.074686
O	11.881693	3.641408	-3.641408
O	13.907823	3.641408	-1.492036
O	13.907823	1.492036	-3.641408
U	9.026331	-1.283361	-3.850083
U	14.184234	1.283361	-1.283361
U	16.763185	-1.283361	-1.283361
U	11.605282	1.283361	-3.850083
K	0.000000	-5.133444	-5.133444
K	2.578952	-7.700165	-7.700165
O	4.144838	-6.208130	-6.208130
O	-1.013065	-4.058757	-9.192201
O	1.013065	-6.208130	-9.192201
O	1.565886	-3.641408	-6.625479
O	6.170968	-4.058757	-6.208130
O	1.565886	-1.492036	-8.774851
O	3.592017	-1.492036	-6.625479
O	3.592017	-3.641408	-8.774851
U	-1.289476	-6.416804	-8.983526
U	3.868427	-3.850083	-6.416804
U	6.447379	-6.416804	-6.416804
U	1.289476	-3.850083	-8.983526
K	5.157903	0.000000	-5.133444
K	7.736855	-2.566722	-7.700165
O	9.302741	-1.074686	-6.208130
O	4.144838	1.074686	-9.192201
O	6.170968	-1.074686	-9.192201
O	6.723790	1.492036	-6.625479
O	11.328872	1.074686	-6.208130
O	6.723790	3.641408	-8.774851
O	8.749920	3.641408	-6.625479
O	8.749920	1.492036	-8.774851
U	3.868427	-1.283361	-8.983526
U	9.026331	1.283361	-6.416804
U	11.605282	-1.283361	-6.416804
U	6.447379	1.283361	-8.983526
