40

As	2.038203	2.038203	2.038203
Ba	0.000000	0.000000	0.000000
O	0.000000	2.038203	2.038203
O	2.038203	0.000000	2.038203
O	2.038203	2.038203	0.000000
As	2.038203	2.038203	6.114610
Ba	0.000000	0.000000	4.076407
O	0.000000	2.038203	6.114610
O	2.038203	0.000000	6.114610
O	2.038203	2.038203	4.076407
As	2.038203	6.114610	2.038203
Ba	0.000000	4.076407	0.000000
O	0.000000	6.114610	2.038203
O	2.038203	4.076407	2.038203
O	2.038203	6.114610	0.000000
As	2.038203	6.114610	6.114610
Ba	0.000000	4.076407	4.076407
O	0.000000	6.114610	6.114610
O	2.038203	4.076407	6.114610
O	2.038203	6.114610	4.076407
As	6.114610	2.038203	2.038203
Ba	4.076407	0.000000	0.000000
O	4.076407	2.038203	2.038203
O	6.114610	0.000000	2.038203
O	6.114610	2.038203	0.000000
As	6.114610	2.038203	6.114610
Ba	4.076407	0.000000	4.076407
O	4.076407	2.038203	6.114610
O	6.114610	0.000000	6.114610
O	6.114610	2.038203	4.076407
As	6.114610	6.114610	2.038203
Ba	4.076407	4.076407	0.000000
O	4.076407	6.114610	2.038203
O	6.114610	4.076407	2.038203
O	6.114610	6.114610	0.000000
As	6.114610	6.114610	6.114610
Ba	4.076407	4.076407	4.076407
O	4.076407	6.114610	6.114610
O	6.114610	4.076407	6.114610
O	6.114610	6.114610	4.076407
