40

As	0.000000	0.000000	0.000000
Ba	2.326386	2.326386	2.326386
O	2.326386	2.326386	0.000000
O	2.326386	0.000000	2.326386
O	0.000000	2.326386	2.326386
As	0.000000	0.000000	4.652771
Ba	2.326386	2.326386	6.979157
O	2.326386	2.326386	4.652771
O	2.326386	0.000000	6.979157
O	0.000000	2.326386	6.979157
As	0.000000	4.652771	0.000000
Ba	2.326386	6.979157	2.326386
O	2.326386	6.979157	0.000000
O	2.326386	4.652771	2.326386
O	0.000000	6.979157	2.326386
As	0.000000	4.652771	4.652771
Ba	2.326386	6.979157	6.979157
O	2.326386	6.979157	4.652771
O	2.326386	4.652771	6.979157
O	0.000000	6.979157	6.979157
As	4.652771	0.000000	0.000000
Ba	6.979157	2.326386	2.326386
O	6.979157	2.326386	0.000000
O	6.979157	0.000000	2.326386
O	4.652771	2.326386	2.326386
As	4.652771	0.000000	4.652771
Ba	6.979157	2.326386	6.979157
O	6.979157	2.326386	4.652771
O	6.979157	0.000000	6.979157
O	4.652771	2.326386	6.979157
As	4.652771	4.652771	0.000000
Ba	6.979157	6.979157	2.326386
O	6.979157	6.979157	0.000000
O	6.979157	4.652771	2.326386
O	4.652771	6.979157	2.326386
As	4.652771	4.652771	4.652771
Ba	6.979157	6.979157	6.979157
O	6.979157	6.979157	4.652771
O	6.979157	4.652771	6.979157
O	4.652771	6.979157	6.979157
