40

Ag	0.000000	0.000000	0.000000
Ge	1.901573	1.901573	1.901573
O	0.000000	1.901573	1.901573
O	1.901573	0.000000	1.901573
O	1.901573	1.901573	0.000000
Ag	0.000000	0.000000	3.803147
Ge	1.901573	1.901573	5.704720
O	0.000000	1.901573	5.704720
O	1.901573	0.000000	5.704720
O	1.901573	1.901573	3.803147
Ag	0.000000	3.803147	0.000000
Ge	1.901573	5.704720	1.901573
O	0.000000	5.704720	1.901573
O	1.901573	3.803147	1.901573
O	1.901573	5.704720	0.000000
Ag	0.000000	3.803147	3.803147
Ge	1.901573	5.704720	5.704720
O	0.000000	5.704720	5.704720
O	1.901573	3.803147	5.704720
O	1.901573	5.704720	3.803147
Ag	3.803147	0.000000	0.000000
Ge	5.704720	1.901573	1.901573
O	3.803147	1.901573	1.901573
O	5.704720	0.000000	1.901573
O	5.704720	1.901573	0.000000
Ag	3.803147	0.000000	3.803147
Ge	5.704720	1.901573	5.704720
O	3.803147	1.901573	5.704720
O	5.704720	0.000000	5.704720
O	5.704720	1.901573	3.803147
Ag	3.803147	3.803147	0.000000
Ge	5.704720	5.704720	1.901573
O	3.803147	5.704720	1.901573
O	5.704720	3.803147	1.901573
O	5.704720	5.704720	0.000000
Ag	3.803147	3.803147	3.803147
Ge	5.704720	5.704720	5.704720
O	3.803147	5.704720	5.704720
O	5.704720	3.803147	5.704720
O	5.704720	5.704720	3.803147
