40

Ga	1.939018	1.939018	1.939018
O	1.939018	1.939018	0.000000
O	1.939018	0.000000	1.939018
O	0.000000	1.939018	1.939018
Pa	0.000000	0.000000	0.000000
Ga	1.939018	1.939018	5.817051
O	1.939018	1.939018	3.878033
O	1.939018	0.000000	5.817051
O	0.000000	1.939018	5.817051
Pa	0.000000	0.000000	3.878033
Ga	1.939018	5.817051	1.939018
O	1.939018	5.817051	0.000000
O	1.939018	3.878033	1.939018
O	0.000000	5.817051	1.939018
Pa	0.000000	3.878033	0.000000
Ga	1.939018	5.817051	5.817051
O	1.939018	5.817051	3.878033
O	1.939018	3.878033	5.817051
O	0.000000	5.817051	5.817051
Pa	0.000000	3.878033	3.878033
Ga	5.817051	1.939018	1.939018
O	5.817051	1.939018	0.000000
O	5.817051	0.000000	1.939018
O	3.878033	1.939018	1.939018
Pa	3.878033	0.000000	0.000000
Ga	5.817051	1.939018	5.817051
O	5.817051	1.939018	3.878033
O	5.817051	0.000000	5.817051
O	3.878033	1.939018	5.817051
Pa	3.878033	0.000000	3.878033
Ga	5.817051	5.817051	1.939018
O	5.817051	5.817051	0.000000
O	5.817051	3.878033	1.939018
O	3.878033	5.817051	1.939018
Pa	3.878033	3.878033	0.000000
Ga	5.817051	5.817051	5.817051
O	5.817051	5.817051	3.878033
O	5.817051	3.878033	5.817051
O	3.878033	5.817051	5.817051
Pa	3.878033	3.878033	3.878033
