40

As	0.000000	0.000000	0.000000
O	1.962744	1.962744	0.000000
O	1.962744	0.000000	1.962744
O	0.000000	1.962744	1.962744
Re	1.962744	1.962744	1.962744
As	0.000000	0.000000	3.925487
O	1.962744	1.962744	3.925487
O	1.962744	0.000000	5.888231
O	0.000000	1.962744	5.888231
Re	1.962744	1.962744	5.888231
As	0.000000	3.925487	0.000000
O	1.962744	5.888231	0.000000
O	1.962744	3.925487	1.962744
O	0.000000	5.888231	1.962744
Re	1.962744	5.888231	1.962744
As	0.000000	3.925487	3.925487
O	1.962744	5.888231	3.925487
O	1.962744	3.925487	5.888231
O	0.000000	5.888231	5.888231
Re	1.962744	5.888231	5.888231
As	3.925487	0.000000	0.000000
O	5.888231	1.962744	0.000000
O	5.888231	0.000000	1.962744
O	3.925487	1.962744	1.962744
Re	5.888231	1.962744	1.962744
As	3.925487	0.000000	3.925487
O	5.888231	1.962744	3.925487
O	5.888231	0.000000	5.888231
O	3.925487	1.962744	5.888231
Re	5.888231	1.962744	5.888231
As	3.925487	3.925487	0.000000
O	5.888231	5.888231	0.000000
O	5.888231	3.925487	1.962744
O	3.925487	5.888231	1.962744
Re	5.888231	5.888231	1.962744
As	3.925487	3.925487	3.925487
O	5.888231	5.888231	3.925487
O	5.888231	3.925487	5.888231
O	3.925487	5.888231	5.888231
Re	5.888231	5.888231	5.888231
