40

Fe	1.841674	1.841674	1.841674
Hf	0.000000	0.000000	0.000000
O	1.841674	1.841674	0.000000
O	1.841674	0.000000	1.841674
O	0.000000	1.841674	1.841674
Fe	1.841674	1.841674	5.525022
Hf	0.000000	0.000000	3.683348
O	1.841674	1.841674	3.683348
O	1.841674	0.000000	5.525022
O	0.000000	1.841674	5.525022
Fe	1.841674	5.525022	1.841674
Hf	0.000000	3.683348	0.000000
O	1.841674	5.525022	0.000000
O	1.841674	3.683348	1.841674
O	0.000000	5.525022	1.841674
Fe	1.841674	5.525022	5.525022
Hf	0.000000	3.683348	3.683348
O	1.841674	5.525022	3.683348
O	1.841674	3.683348	5.525022
O	0.000000	5.525022	5.525022
Fe	5.525022	1.841674	1.841674
Hf	3.683348	0.000000	0.000000
O	5.525022	1.841674	0.000000
O	5.525022	0.000000	1.841674
O	3.683348	1.841674	1.841674
Fe	5.525022	1.841674	5.525022
Hf	3.683348	0.000000	3.683348
O	5.525022	1.841674	3.683348
O	5.525022	0.000000	5.525022
O	3.683348	1.841674	5.525022
Fe	5.525022	5.525022	1.841674
Hf	3.683348	3.683348	0.000000
O	5.525022	5.525022	0.000000
O	5.525022	3.683348	1.841674
O	3.683348	5.525022	1.841674
Fe	5.525022	5.525022	5.525022
Hf	3.683348	3.683348	3.683348
O	5.525022	5.525022	3.683348
O	5.525022	3.683348	5.525022
O	3.683348	5.525022	5.525022
