440

Na	2.388436	2.436210	2.436210
Na	4.824646	0.000000	4.824646
Na	2.388436	7.213082	7.213082
Na	4.824646	4.824646	0.000000
Na	7.260856	2.436210	7.213082
Na	0.000000	0.000000	0.000000
Na	7.260856	7.213082	2.436210
Tm	1.203037	8.476272	3.621609
Tm	3.624536	1.200110	8.449182
Tm	3.651626	3.621609	6.027683
Tm	1.203037	1.173020	6.027683
Tm	1.203037	3.621609	8.476272
Tm	3.651626	6.027683	3.621609
Tm	3.624536	8.449182	1.200110
Tm	1.203037	6.027683	1.173020
Tm	6.024756	8.449182	8.449182
Tm	8.446254	1.173020	3.621609
Tm	8.446254	3.621609	1.173020
Tm	6.024756	1.200110	1.200110
Tm	5.997666	3.621609	3.621609
Tm	8.446254	6.027683	8.476272
Tm	8.446254	8.476272	6.027683
Tm	5.997666	6.027683	6.027683
O	3.793083	1.031563	1.031563
O	5.858886	3.796737	5.852554
O	5.856209	1.031563	8.617729
O	3.790406	3.796737	3.796737
O	3.438235	1.386411	6.205949
O	1.381303	8.262881	1.386411
O	1.381303	1.386411	8.262881
O	3.438235	8.262881	3.443343
O	3.790406	5.852554	5.852554
O	5.856209	8.617729	1.031563
O	5.858886	5.852554	3.796737
O	3.793083	8.617729	8.617729
O	3.438235	6.205949	1.386411
O	1.442082	3.382564	6.266728
O	1.442082	6.266728	3.382564
O	3.438235	3.443343	8.262881
O	8.621383	1.034240	5.852554
O	1.027909	3.796737	1.034240
O	1.027909	1.034240	3.796737
O	8.621383	3.796737	8.615052
O	8.267989	1.386411	1.386411
O	6.211057	8.262881	6.205949
O	6.211057	1.386411	3.443343
O	8.267989	8.262881	8.262881
O	8.621383	5.852554	1.034240
O	1.027909	8.615052	5.852554
O	1.027909	5.852554	8.615052
O	8.621383	8.615052	3.796737
O	8.207209	6.266728	6.266728
O	6.211057	3.443343	1.386411
O	6.211057	6.205949	8.262881
O	8.207209	3.382564	3.382564
Na	2.388436	2.436210	12.085501
Na	4.824646	0.000000	14.473938
Na	2.388436	7.213082	16.862374
Na	4.824646	4.824646	9.649292
Na	7.260856	2.436210	16.862374
Na	0.000000	0.000000	9.649292
Na	7.260856	7.213082	12.085501
Tm	1.203037	8.476272	13.270900
Tm	3.624536	1.200110	18.098473
Tm	3.651626	3.621609	15.676975
Tm	1.203037	1.173020	15.676975
Tm	1.203037	3.621609	18.125564
Tm	3.651626	6.027683	13.270900
Tm	3.624536	8.449182	10.849402
Tm	1.203037	6.027683	10.822311
Tm	6.024756	8.449182	18.098473
Tm	8.446254	1.173020	13.270900
Tm	8.446254	3.621609	10.822311
Tm	6.024756	1.200110	10.849402
Tm	5.997666	3.621609	13.270900
Tm	8.446254	6.027683	18.125564
Tm	8.446254	8.476272	15.676975
Tm	5.997666	6.027683	15.676975
O	3.793083	1.031563	10.680855
O	5.858886	3.796737	15.501846
O	5.856209	1.031563	18.267021
O	3.790406	3.796737	13.446029
O	3.438235	1.386411	15.855241
O	1.381303	8.262881	11.035703
O	1.381303	1.386411	17.912172
O	3.438235	8.262881	13.092635
O	3.790406	5.852554	15.501846
O	5.856209	8.617729	10.680855
O	5.858886	5.852554	13.446029
O	3.793083	8.617729	18.267021
O	3.438235	6.205949	11.035703
O	1.442082	3.382564	15.916020
O	1.442082	6.266728	13.031855
O	3.438235	3.443343	17.912172
O	8.621383	1.034240	15.501846
O	1.027909	3.796737	10.683531
O	1.027909	1.034240	13.446029
O	8.621383	3.796737	18.264344
O	8.267989	1.386411	11.035703
O	6.211057	8.262881	15.855241
O	6.211057	1.386411	13.092635
O	8.267989	8.262881	17.912172
O	8.621383	5.852554	10.683531
O	1.027909	8.615052	15.501846
O	1.027909	5.852554	18.264344
O	8.621383	8.615052	13.446029
O	8.207209	6.266728	15.916020
O	6.211057	3.443343	11.035703
O	6.211057	6.205949	17.912172
O	8.207209	3.382564	13.031855
Na	2.388436	12.085501	2.436210
Na	4.824646	9.649292	4.824646
Na	2.388436	16.862374	7.213082
Na	4.824646	14.473938	0.000000
Na	7.260856	12.085501	7.213082
Na	0.000000	9.649292	0.000000
Na	7.260856	16.862374	2.436210
Tm	1.203037	18.125564	3.621609
Tm	3.624536	10.849402	8.449182
Tm	3.651626	13.270900	6.027683
Tm	1.203037	10.822311	6.027683
Tm	1.203037	13.270900	8.476272
Tm	3.651626	15.676975	3.621609
Tm	3.624536	18.098473	1.200110
Tm	1.203037	15.676975	1.173020
Tm	6.024756	18.098473	8.449182
Tm	8.446254	10.822311	3.621609
Tm	8.446254	13.270900	1.173020
Tm	6.024756	10.849402	1.200110
Tm	5.997666	13.270900	3.621609
Tm	8.446254	15.676975	8.476272
Tm	8.446254	18.125564	6.027683
Tm	5.997666	15.676975	6.027683
O	3.793083	10.680855	1.031563
O	5.858886	13.446029	5.852554
O	5.856209	10.680855	8.617729
O	3.790406	13.446029	3.796737
O	3.438235	11.035703	6.205949
O	1.381303	17.912172	1.386411
O	1.381303	11.035703	8.262881
O	3.438235	17.912172	3.443343
O	3.790406	15.501846	5.852554
O	5.856209	18.267021	1.031563
O	5.858886	15.501846	3.796737
O	3.793083	18.267021	8.617729
O	3.438235	15.855241	1.386411
O	1.442082	13.031855	6.266728
O	1.442082	15.916020	3.382564
O	3.438235	13.092635	8.262881
O	8.621383	10.683531	5.852554
O	1.027909	13.446029	1.034240
O	1.027909	10.683531	3.796737
O	8.621383	13.446029	8.615052
O	8.267989	11.035703	1.386411
O	6.211057	17.912172	6.205949
O	6.211057	11.035703	3.443343
O	8.267989	17.912172	8.262881
O	8.621383	15.501846	1.034240
O	1.027909	18.264344	5.852554
O	1.027909	15.501846	8.615052
O	8.621383	18.264344	3.796737
O	8.207209	15.916020	6.266728
O	6.211057	13.092635	1.386411
O	6.211057	15.855241	8.262881
O	8.207209	13.031855	3.382564
Na	2.388436	12.085501	12.085501
Na	4.824646	9.649292	14.473938
Na	2.388436	16.862374	16.862374
Na	4.824646	14.473938	9.649292
Na	7.260856	12.085501	16.862374
Na	0.000000	9.649292	9.649292
Na	7.260856	16.862374	12.085501
Tm	1.203037	18.125564	13.270900
Tm	3.624536	10.849402	18.098473
Tm	3.651626	13.270900	15.676975
Tm	1.203037	10.822311	15.676975
Tm	1.203037	13.270900	18.125564
Tm	3.651626	15.676975	13.270900
Tm	3.624536	18.098473	10.849402
Tm	1.203037	15.676975	10.822311
Tm	6.024756	18.098473	18.098473
Tm	8.446254	10.822311	13.270900
Tm	8.446254	13.270900	10.822311
Tm	6.024756	10.849402	10.849402
Tm	5.997666	13.270900	13.270900
Tm	8.446254	15.676975	18.125564
Tm	8.446254	18.125564	15.676975
Tm	5.997666	15.676975	15.676975
O	3.793083	10.680855	10.680855
O	5.858886	13.446029	15.501846
O	5.856209	10.680855	18.267021
O	3.790406	13.446029	13.446029
O	3.438235	11.035703	15.855241
O	1.381303	17.912172	11.035703
O	1.381303	11.035703	17.912172
O	3.438235	17.912172	13.092635
O	3.790406	15.501846	15.501846
O	5.856209	18.267021	10.680855
O	5.858886	15.501846	13.446029
O	3.793083	18.267021	18.267021
O	3.438235	15.855241	11.035703
O	1.442082	13.031855	15.916020
O	1.442082	15.916020	13.031855
O	3.438235	13.092635	17.912172
O	8.621383	10.683531	15.501846
O	1.027909	13.446029	10.683531
O	1.027909	10.683531	13.446029
O	8.621383	13.446029	18.264344
O	8.267989	11.035703	11.035703
O	6.211057	17.912172	15.855241
O	6.211057	11.035703	13.092635
O	8.267989	17.912172	17.912172
O	8.621383	15.501846	10.683531
O	1.027909	18.264344	15.501846
O	1.027909	15.501846	18.264344
O	8.621383	18.264344	13.446029
O	8.207209	15.916020	15.916020
O	6.211057	13.092635	11.035703
O	6.211057	15.855241	17.912172
O	8.207209	13.031855	13.031855
Na	12.037728	2.436210	2.436210
Na	14.473938	0.000000	4.824646
Na	12.037728	7.213082	7.213082
Na	14.473938	4.824646	0.000000
Na	16.910147	2.436210	7.213082
Na	9.649292	0.000000	0.000000
Na	16.910147	7.213082	2.436210
Tm	10.852329	8.476272	3.621609
Tm	13.273827	1.200110	8.449182
Tm	13.300918	3.621609	6.027683
Tm	10.852329	1.173020	6.027683
Tm	10.852329	3.621609	8.476272
Tm	13.300918	6.027683	3.621609
Tm	13.273827	8.449182	1.200110
Tm	10.852329	6.027683	1.173020
Tm	15.674048	8.449182	8.449182
Tm	18.095546	1.173020	3.621609
Tm	18.095546	3.621609	1.173020
Tm	15.674048	1.200110	1.200110
Tm	15.646957	3.621609	3.621609
Tm	18.095546	6.027683	8.476272
Tm	18.095546	8.476272	6.027683
Tm	15.646957	6.027683	6.027683
O	13.442375	1.031563	1.031563
O	15.508177	3.796737	5.852554
O	15.505500	1.031563	8.617729
O	13.439698	3.796737	3.796737
O	13.087526	1.386411	6.205949
O	11.030595	8.262881	1.386411
O	11.030595	1.386411	8.262881
O	13.087526	8.262881	3.443343
O	13.439698	5.852554	5.852554
O	15.505500	8.617729	1.031563
O	15.508177	5.852554	3.796737
O	13.442375	8.617729	8.617729
O	13.087526	6.205949	1.386411
O	11.091374	3.382564	6.266728
O	11.091374	6.266728	3.382564
O	13.087526	3.443343	8.262881
O	18.270675	1.034240	5.852554
O	10.677200	3.796737	1.034240
O	10.677200	1.034240	3.796737
O	18.270675	3.796737	8.615052
O	17.917281	1.386411	1.386411
O	15.860349	8.262881	6.205949
O	15.860349	1.386411	3.443343
O	17.917281	8.262881	8.262881
O	18.270675	5.852554	1.034240
O	10.677200	8.615052	5.852554
O	10.677200	5.852554	8.615052
O	18.270675	8.615052	3.796737
O	17.856501	6.266728	6.266728
O	15.860349	3.443343	1.386411
O	15.860349	6.205949	8.262881
O	17.856501	3.382564	3.382564
Na	12.037728	2.436210	12.085501
Na	14.473938	0.000000	14.473938
Na	12.037728	7.213082	16.862374
Na	14.473938	4.824646	9.649292
Na	16.910147	2.436210	16.862374
Na	9.649292	0.000000	9.649292
Na	16.910147	7.213082	12.085501
Tm	10.852329	8.476272	13.270900
Tm	13.273827	1.200110	18.098473
Tm	13.300918	3.621609	15.676975
Tm	10.852329	1.173020	15.676975
Tm	10.852329	3.621609	18.125564
Tm	13.300918	6.027683	13.270900
Tm	13.273827	8.449182	10.849402
Tm	10.852329	6.027683	10.822311
Tm	15.674048	8.449182	18.098473
Tm	18.095546	1.173020	13.270900
Tm	18.095546	3.621609	10.822311
Tm	15.674048	1.200110	10.849402
Tm	15.646957	3.621609	13.270900
Tm	18.095546	6.027683	18.125564
Tm	18.095546	8.476272	15.676975
Tm	15.646957	6.027683	15.676975
O	13.442375	1.031563	10.680855
O	15.508177	3.796737	15.501846
O	15.505500	1.031563	18.267021
O	13.439698	3.796737	13.446029
O	13.087526	1.386411	15.855241
O	11.030595	8.262881	11.035703
O	11.030595	1.386411	17.912172
O	13.087526	8.262881	13.092635
O	13.439698	5.852554	15.501846
O	15.505500	8.617729	10.680855
O	15.508177	5.852554	13.446029
O	13.442375	8.617729	18.267021
O	13.087526	6.205949	11.035703
O	11.091374	3.382564	15.916020
O	11.091374	6.266728	13.031855
O	13.087526	3.443343	17.912172
O	18.270675	1.034240	15.501846
O	10.677200	3.796737	10.683531
O	10.677200	1.034240	13.446029
O	18.270675	3.796737	18.264344
O	17.917281	1.386411	11.035703
O	15.860349	8.262881	15.855241
O	15.860349	1.386411	13.092635
O	17.917281	8.262881	17.912172
O	18.270675	5.852554	10.683531
O	10.677200	8.615052	15.501846
O	10.677200	5.852554	18.264344
O	18.270675	8.615052	13.446029
O	17.856501	6.266728	15.916020
O	15.860349	3.443343	11.035703
O	15.860349	6.205949	17.912172
O	17.856501	3.382564	13.031855
Na	12.037728	12.085501	2.436210
Na	14.473938	9.649292	4.824646
Na	12.037728	16.862374	7.213082
Na	14.473938	14.473938	0.000000
Na	16.910147	12.085501	7.213082
Na	9.649292	9.649292	0.000000
Na	16.910147	16.862374	2.436210
Tm	10.852329	18.125564	3.621609
Tm	13.273827	10.849402	8.449182
Tm	13.300918	13.270900	6.027683
Tm	10.852329	10.822311	6.027683
Tm	10.852329	13.270900	8.476272
Tm	13.300918	15.676975	3.621609
Tm	13.273827	18.098473	1.200110
Tm	10.852329	15.676975	1.173020
Tm	15.674048	18.098473	8.449182
Tm	18.095546	10.822311	3.621609
Tm	18.095546	13.270900	1.173020
Tm	15.674048	10.849402	1.200110
Tm	15.646957	13.270900	3.621609
Tm	18.095546	15.676975	8.476272
Tm	18.095546	18.125564	6.027683
Tm	15.646957	15.676975	6.027683
O	13.442375	10.680855	1.031563
O	15.508177	13.446029	5.852554
O	15.505500	10.680855	8.617729
O	13.439698	13.446029	3.796737
O	13.087526	11.035703	6.205949
O	11.030595	17.912172	1.386411
O	11.030595	11.035703	8.262881
O	13.087526	17.912172	3.443343
O	13.439698	15.501846	5.852554
O	15.505500	18.267021	1.031563
O	15.508177	15.501846	3.796737
O	13.442375	18.267021	8.617729
O	13.087526	15.855241	1.386411
O	11.091374	13.031855	6.266728
O	11.091374	15.916020	3.382564
O	13.087526	13.092635	8.262881
O	18.270675	10.683531	5.852554
O	10.677200	13.446029	1.034240
O	10.677200	10.683531	3.796737
O	18.270675	13.446029	8.615052
O	17.917281	11.035703	1.386411
O	15.860349	17.912172	6.205949
O	15.860349	11.035703	3.443343
O	17.917281	17.912172	8.262881
O	18.270675	15.501846	1.034240
O	10.677200	18.264344	5.852554
O	10.677200	15.501846	8.615052
O	18.270675	18.264344	3.796737
O	17.856501	15.916020	6.266728
O	15.860349	13.092635	1.386411
O	15.860349	15.855241	8.262881
O	17.856501	13.031855	3.382564
Na	12.037728	12.085501	12.085501
Na	14.473938	9.649292	14.473938
Na	12.037728	16.862374	16.862374
Na	14.473938	14.473938	9.649292
Na	16.910147	12.085501	16.862374
Na	9.649292	9.649292	9.649292
Na	16.910147	16.862374	12.085501
Tm	10.852329	18.125564	13.270900
Tm	13.273827	10.849402	18.098473
Tm	13.300918	13.270900	15.676975
Tm	10.852329	10.822311	15.676975
Tm	10.852329	13.270900	18.125564
Tm	13.300918	15.676975	13.270900
Tm	13.273827	18.098473	10.849402
Tm	10.852329	15.676975	10.822311
Tm	15.674048	18.098473	18.098473
Tm	18.095546	10.822311	13.270900
Tm	18.095546	13.270900	10.822311
Tm	15.674048	10.849402	10.849402
Tm	15.646957	13.270900	13.270900
Tm	18.095546	15.676975	18.125564
Tm	18.095546	18.125564	15.676975
Tm	15.646957	15.676975	15.676975
O	13.442375	10.680855	10.680855
O	15.508177	13.446029	15.501846
O	15.505500	10.680855	18.267021
O	13.439698	13.446029	13.446029
O	13.087526	11.035703	15.855241
O	11.030595	17.912172	11.035703
O	11.030595	11.035703	17.912172
O	13.087526	17.912172	13.092635
O	13.439698	15.501846	15.501846
O	15.505500	18.267021	10.680855
O	15.508177	15.501846	13.446029
O	13.442375	18.267021	18.267021
O	13.087526	15.855241	11.035703
O	11.091374	13.031855	15.916020
O	11.091374	15.916020	13.031855
O	13.087526	13.092635	17.912172
O	18.270675	10.683531	15.501846
O	10.677200	13.446029	10.683531
O	10.677200	10.683531	13.446029
O	18.270675	13.446029	18.264344
O	17.917281	11.035703	11.035703
O	15.860349	17.912172	15.855241
O	15.860349	11.035703	13.092635
O	17.917281	17.912172	17.912172
O	18.270675	15.501846	10.683531
O	10.677200	18.264344	15.501846
O	10.677200	15.501846	18.264344
O	18.270675	18.264344	13.446029
O	17.856501	15.916020	15.916020
O	15.860349	13.092635	11.035703
O	15.860349	15.855241	17.912172
O	17.856501	13.031855	13.031855
