40

O	2.012915	2.012915	0.000000
O	0.000000	2.012915	2.012915
O	2.012915	0.000000	2.012915
Sc	2.012915	2.012915	2.012915
U	0.000000	0.000000	0.000000
O	2.012915	2.012915	4.025822
O	0.000000	2.012915	6.038736
O	2.012915	0.000000	6.038736
Sc	2.012915	2.012915	6.038736
U	0.000000	0.000000	4.025822
O	2.012915	6.038736	0.000000
O	0.000000	6.038736	2.012915
O	2.012915	4.025822	2.012915
Sc	2.012915	6.038736	2.012915
U	0.000000	4.025822	0.000000
O	2.012915	6.038736	4.025822
O	0.000000	6.038736	6.038736
O	2.012915	4.025822	6.038736
Sc	2.012915	6.038736	6.038736
U	0.000000	4.025822	4.025822
O	6.038736	2.012915	0.000000
O	4.025822	2.012915	2.012915
O	6.038736	0.000000	2.012915
Sc	6.038736	2.012915	2.012915
U	4.025822	0.000000	0.000000
O	6.038736	2.012915	4.025822
O	4.025822	2.012915	6.038736
O	6.038736	0.000000	6.038736
Sc	6.038736	2.012915	6.038736
U	4.025822	0.000000	4.025822
O	6.038736	6.038736	0.000000
O	4.025822	6.038736	2.012915
O	6.038736	4.025822	2.012915
Sc	6.038736	6.038736	2.012915
U	4.025822	4.025822	0.000000
O	6.038736	6.038736	4.025822
O	4.025822	6.038736	6.038736
O	6.038736	4.025822	6.038736
Sc	6.038736	6.038736	6.038736
U	4.025822	4.025822	4.025822
