40

Cs	0.000000	0.000000	0.000000
O	2.018130	2.018130	0.000000
O	0.000000	2.018130	2.018130
O	2.018130	0.000000	2.018130
Zn	2.018130	2.018130	2.018130
Cs	0.000000	0.000000	4.036277
O	2.018130	2.018130	4.036277
O	0.000000	2.018130	6.054407
O	2.018130	0.000000	6.054407
Zn	2.018130	2.018130	6.054407
Cs	0.000000	4.036277	0.000000
O	2.018130	6.054407	0.000000
O	0.000000	6.054407	2.018130
O	2.018130	4.036277	2.018130
Zn	2.018130	6.054407	2.018130
Cs	0.000000	4.036277	4.036277
O	2.018130	6.054407	4.036277
O	0.000000	6.054407	6.054407
O	2.018130	4.036277	6.054407
Zn	2.018130	6.054407	6.054407
Cs	4.036277	0.000000	0.000000
O	6.054407	2.018130	0.000000
O	4.036277	2.018130	2.018130
O	6.054407	0.000000	2.018130
Zn	6.054407	2.018130	2.018130
Cs	4.036277	0.000000	4.036277
O	6.054407	2.018130	4.036277
O	4.036277	2.018130	6.054407
O	6.054407	0.000000	6.054407
Zn	6.054407	2.018130	6.054407
Cs	4.036277	4.036277	0.000000
O	6.054407	6.054407	0.000000
O	4.036277	6.054407	2.018130
O	6.054407	4.036277	2.018130
Zn	6.054407	6.054407	2.018130
Cs	4.036277	4.036277	4.036277
O	6.054407	6.054407	4.036277
O	4.036277	6.054407	6.054407
O	6.054407	4.036277	6.054407
Zn	6.054407	6.054407	6.054407
