40

Br	0.000000	0.000000	0.000000
O	2.747485	2.747485	2.747485
Rb	2.747485	2.747485	0.000000
Rb	2.747485	0.000000	2.747485
Rb	0.000000	2.747485	2.747485
Br	0.000000	0.000000	5.494971
O	2.747485	2.747485	8.242456
Rb	2.747485	2.747485	5.494971
Rb	2.747485	0.000000	8.242456
Rb	0.000000	2.747485	8.242456
Br	0.000000	5.494971	0.000000
O	2.747485	8.242456	2.747485
Rb	2.747485	8.242456	0.000000
Rb	2.747485	5.494971	2.747485
Rb	0.000000	8.242456	2.747485
Br	0.000000	5.494971	5.494971
O	2.747485	8.242456	8.242456
Rb	2.747485	8.242456	5.494971
Rb	2.747485	5.494971	8.242456
Rb	0.000000	8.242456	8.242456
Br	5.494971	0.000000	0.000000
O	8.242456	2.747485	2.747485
Rb	8.242456	2.747485	0.000000
Rb	8.242456	0.000000	2.747485
Rb	5.494971	2.747485	2.747485
Br	5.494971	0.000000	5.494971
O	8.242456	2.747485	8.242456
Rb	8.242456	2.747485	5.494971
Rb	8.242456	0.000000	8.242456
Rb	5.494971	2.747485	8.242456
Br	5.494971	5.494971	0.000000
O	8.242456	8.242456	2.747485
Rb	8.242456	8.242456	0.000000
Rb	8.242456	5.494971	2.747485
Rb	5.494971	8.242456	2.747485
Br	5.494971	5.494971	5.494971
O	8.242456	8.242456	8.242456
Rb	8.242456	8.242456	5.494971
Rb	8.242456	5.494971	8.242456
Rb	5.494971	8.242456	8.242456
