112

Ce	0.000000	0.000000	0.000000
Ce	2.519435	-2.513461	-2.513461
O	3.912067	-1.121531	-1.121531
O	-1.126803	1.121530	-3.905392
O	1.126803	-1.121531	-3.905392
O	1.392632	1.391931	-1.391931
O	6.165673	1.121530	-1.121531
O	1.392632	3.634992	-3.634992
O	3.646238	3.634992	-1.391931
O	3.646238	1.391931	-3.634992
Te	-1.259718	-1.256731	-3.770192
Te	3.779153	1.256731	-1.256731
Te	6.298588	-1.256731	-1.256731
Te	1.259718	1.256731	-3.770192
Ce	5.038870	5.026923	0.000000
Ce	7.558306	2.513461	-2.513461
O	8.950938	3.905392	-1.121531
O	3.912067	6.148453	-3.905392
O	6.165673	3.905392	-3.905392
O	6.431503	6.418854	-1.391931
O	11.204544	6.148453	-1.121531
O	6.431503	8.661915	-3.634992
O	8.685109	8.661915	-1.391931
O	8.685108	6.418854	-3.634992
Te	3.779153	3.770192	-3.770192
Te	8.818023	6.283654	-1.256731
Te	11.337458	3.770192	-1.256731
Te	6.298588	6.283654	-3.770192
Ce	-5.038870	0.000000	-5.026923
Ce	-2.519435	-2.513461	-7.540384
O	-1.126803	-1.121531	-6.148453
O	-6.165673	1.121530	-8.932315
O	-3.912067	-1.121531	-8.932315
O	-3.646238	1.391931	-6.418854
O	1.126803	1.121530	-6.148453
O	-3.646238	3.634992	-8.661915
O	-1.392632	3.634992	-6.418854
O	-1.392632	1.391931	-8.661915
Te	-6.298588	-1.256731	-8.797115
Te	-1.259718	1.256731	-6.283654
Te	1.259718	-1.256731	-6.283654
Te	-3.779153	1.256731	-8.797115
Ce	0.000000	5.026923	-5.026923
Ce	2.519435	2.513461	-7.540384
O	3.912067	3.905392	-6.148453
O	-1.126803	6.148453	-8.932315
O	1.126803	3.905392	-8.932315
O	1.392632	6.418854	-6.418854
O	6.165673	6.148453	-6.148453
O	1.392632	8.661915	-8.661915
O	3.646238	8.661915	-6.418854
O	3.646238	6.418854	-8.661915
Te	-1.259718	3.770192	-8.797115
Te	3.779153	6.283654	-6.283654
Te	6.298588	3.770192	-6.283654
Te	1.259718	6.283654	-8.797115
Ce	5.038870	-5.026923	0.000000
Ce	7.558306	-7.540384	-2.513461
O	8.950938	-6.148453	-1.121531
O	3.912067	-3.905392	-3.905392
O	6.165673	-6.148453	-3.905392
O	6.431503	-3.634992	-1.391931
O	11.204544	-3.905392	-1.121531
O	6.431503	-1.391931	-3.634992
O	8.685109	-1.391931	-1.391931
O	8.685108	-3.634992	-3.634992
Te	3.779153	-6.283654	-3.770192
Te	8.818023	-3.770192	-1.256731
Te	11.337458	-6.283654	-1.256731
Te	6.298588	-3.770192	-3.770192
Ce	10.077741	0.000000	0.000000
Ce	12.597176	-2.513461	-2.513461
O	13.989808	-1.121531	-1.121531
O	8.950938	1.121530	-3.905392
O	11.204544	-1.121531	-3.905392
O	11.470373	1.391931	-1.391931
O	16.243414	1.121530	-1.121531
O	11.470373	3.634992	-3.634992
O	13.723979	3.634992	-1.391931
O	13.723979	1.391931	-3.634992
Te	8.818023	-1.256731	-3.770192
Te	13.856894	1.256731	-1.256731
Te	16.376329	-1.256731	-1.256731
Te	11.337458	1.256731	-3.770192
Ce	0.000000	-5.026923	-5.026923
Ce	2.519435	-7.540384	-7.540384
O	3.912067	-6.148453	-6.148453
O	-1.126803	-3.905392	-8.932315
O	1.126803	-6.148453	-8.932315
O	1.392632	-3.634992	-6.418854
O	6.165673	-3.905392	-6.148453
O	1.392632	-1.391931	-8.661915
O	3.646238	-1.391931	-6.418854
O	3.646238	-3.634992	-8.661915
Te	-1.259718	-6.283654	-8.797115
Te	3.779153	-3.770192	-6.283654
Te	6.298588	-6.283654	-6.283654
Te	1.259718	-3.770192	-8.797115
Ce	5.038870	0.000000	-5.026923
Ce	7.558306	-2.513461	-7.540384
O	8.950938	-1.121531	-6.148453
O	3.912067	1.121530	-8.932315
O	6.165673	-1.121531	-8.932315
O	6.431503	1.391931	-6.418854
O	11.204544	1.121530	-6.148453
O	6.431503	3.634992	-8.661915
O	8.685109	3.634992	-6.418854
O	8.685108	1.391931	-8.661915
Te	3.779153	-1.256731	-8.797115
Te	8.818023	1.256731	-6.283654
Te	11.337458	-1.256731	-6.283654
Te	6.298588	1.256731	-8.797115
