40

Ac	0.000000	0.000000	0.000000
Mg	1.985150	1.985150	1.985150
O	1.985150	0.000000	1.985150
O	0.000000	1.985150	1.985150
O	1.985150	1.985150	0.000000
Ac	0.000000	0.000000	3.970300
Mg	1.985150	1.985150	5.955450
O	1.985150	0.000000	5.955450
O	0.000000	1.985150	5.955450
O	1.985150	1.985150	3.970300
Ac	0.000000	3.970300	0.000000
Mg	1.985150	5.955450	1.985150
O	1.985150	3.970300	1.985150
O	0.000000	5.955450	1.985150
O	1.985150	5.955450	0.000000
Ac	0.000000	3.970300	3.970300
Mg	1.985150	5.955450	5.955450
O	1.985150	3.970300	5.955450
O	0.000000	5.955450	5.955450
O	1.985150	5.955450	3.970300
Ac	3.970300	0.000000	0.000000
Mg	5.955450	1.985150	1.985150
O	5.955450	0.000000	1.985150
O	3.970300	1.985150	1.985150
O	5.955450	1.985150	0.000000
Ac	3.970300	0.000000	3.970300
Mg	5.955450	1.985150	5.955450
O	5.955450	0.000000	5.955450
O	3.970300	1.985150	5.955450
O	5.955450	1.985150	3.970300
Ac	3.970300	3.970300	0.000000
Mg	5.955450	5.955450	1.985150
O	5.955450	3.970300	1.985150
O	3.970300	5.955450	1.985150
O	5.955450	5.955450	0.000000
Ac	3.970300	3.970300	3.970300
Mg	5.955450	5.955450	5.955450
O	5.955450	3.970300	5.955450
O	3.970300	5.955450	5.955450
O	5.955450	5.955450	3.970300
