40

Ag	0.000000	0.000000	0.000000
I	2.074788	2.074788	2.074788
O	0.000000	2.074788	2.074788
O	2.074788	0.000000	2.074788
O	2.074788	2.074788	0.000000
Ag	0.000000	0.000000	4.149576
I	2.074788	2.074788	6.224364
O	0.000000	2.074788	6.224364
O	2.074788	0.000000	6.224364
O	2.074788	2.074788	4.149576
Ag	0.000000	4.149576	0.000000
I	2.074788	6.224364	2.074788
O	0.000000	6.224364	2.074788
O	2.074788	4.149576	2.074788
O	2.074788	6.224364	0.000000
Ag	0.000000	4.149576	4.149576
I	2.074788	6.224364	6.224364
O	0.000000	6.224364	6.224364
O	2.074788	4.149576	6.224364
O	2.074788	6.224364	4.149576
Ag	4.149576	0.000000	0.000000
I	6.224364	2.074788	2.074788
O	4.149576	2.074788	2.074788
O	6.224364	0.000000	2.074788
O	6.224364	2.074788	0.000000
Ag	4.149576	0.000000	4.149576
I	6.224364	2.074788	6.224364
O	4.149576	2.074788	6.224364
O	6.224364	0.000000	6.224364
O	6.224364	2.074788	4.149576
Ag	4.149576	4.149576	0.000000
I	6.224364	6.224364	2.074788
O	4.149576	6.224364	2.074788
O	6.224364	4.149576	2.074788
O	6.224364	6.224364	0.000000
Ag	4.149576	4.149576	4.149576
I	6.224364	6.224364	6.224364
O	4.149576	6.224364	6.224364
O	6.224364	4.149576	6.224364
O	6.224364	6.224364	4.149576
