40

Fe	0.000000	0.000000	0.000000
Li	1.777880	1.777880	1.777880
O	0.000000	1.777880	1.777880
O	1.777880	0.000000	1.777880
O	1.777880	1.777880	0.000000
Fe	0.000000	0.000000	3.555759
Li	1.777880	1.777880	5.333639
O	0.000000	1.777880	5.333639
O	1.777880	0.000000	5.333639
O	1.777880	1.777880	3.555759
Fe	0.000000	3.555759	0.000000
Li	1.777880	5.333639	1.777880
O	0.000000	5.333639	1.777880
O	1.777880	3.555759	1.777880
O	1.777880	5.333639	0.000000
Fe	0.000000	3.555759	3.555759
Li	1.777880	5.333639	5.333639
O	0.000000	5.333639	5.333639
O	1.777880	3.555759	5.333639
O	1.777880	5.333639	3.555759
Fe	3.555759	0.000000	0.000000
Li	5.333639	1.777880	1.777880
O	3.555759	1.777880	1.777880
O	5.333639	0.000000	1.777880
O	5.333639	1.777880	0.000000
Fe	3.555759	0.000000	3.555759
Li	5.333639	1.777880	5.333639
O	3.555759	1.777880	5.333639
O	5.333639	0.000000	5.333639
O	5.333639	1.777880	3.555759
Fe	3.555759	3.555759	0.000000
Li	5.333639	5.333639	1.777880
O	3.555759	5.333639	1.777880
O	5.333639	3.555759	1.777880
O	5.333639	5.333639	0.000000
Fe	3.555759	3.555759	3.555759
Li	5.333639	5.333639	5.333639
O	3.555759	5.333639	5.333639
O	5.333639	3.555759	5.333639
O	5.333639	5.333639	3.555759
