40

Fe	0.000000	0.000000	0.000000
Li	1.779379	1.779379	1.779379
O	1.779379	1.779379	0.000000
O	1.779379	0.000000	1.779379
O	0.000000	1.779379	1.779379
Fe	0.000000	0.000000	3.558760
Li	1.779379	1.779379	5.338139
O	1.779379	1.779379	3.558760
O	1.779379	0.000000	5.338139
O	0.000000	1.779379	5.338139
Fe	0.000000	3.558760	0.000000
Li	1.779379	5.338139	1.779379
O	1.779379	5.338139	0.000000
O	1.779379	3.558760	1.779379
O	0.000000	5.338139	1.779379
Fe	0.000000	3.558760	3.558760
Li	1.779379	5.338139	5.338139
O	1.779379	5.338139	3.558760
O	1.779379	3.558760	5.338139
O	0.000000	5.338139	5.338139
Fe	3.558760	0.000000	0.000000
Li	5.338139	1.779379	1.779379
O	5.338139	1.779379	0.000000
O	5.338139	0.000000	1.779379
O	3.558760	1.779379	1.779379
Fe	3.558760	0.000000	3.558760
Li	5.338139	1.779379	5.338139
O	5.338139	1.779379	3.558760
O	5.338139	0.000000	5.338139
O	3.558760	1.779379	5.338139
Fe	3.558760	3.558760	0.000000
Li	5.338139	5.338139	1.779379
O	5.338139	5.338139	0.000000
O	5.338139	3.558760	1.779379
O	3.558760	5.338139	1.779379
Fe	3.558760	3.558760	3.558760
Li	5.338139	5.338139	5.338139
O	5.338139	5.338139	3.558760
O	5.338139	3.558760	5.338139
O	3.558760	5.338139	5.338139
