40

Fe	0.000000	0.000000	0.000000
Li	1.774401	1.774401	1.774401
O	0.000000	1.774401	1.774401
O	1.774401	0.000000	1.774401
O	1.774401	1.774401	0.000000
Fe	0.000000	0.000000	3.548803
Li	1.774401	1.774401	5.323204
O	0.000000	1.774401	5.323204
O	1.774401	0.000000	5.323204
O	1.774401	1.774401	3.548803
Fe	0.000000	3.548803	0.000000
Li	1.774401	5.323204	1.774401
O	0.000000	5.323204	1.774401
O	1.774401	3.548803	1.774401
O	1.774401	5.323204	0.000000
Fe	0.000000	3.548803	3.548803
Li	1.774401	5.323204	5.323204
O	0.000000	5.323204	5.323204
O	1.774401	3.548803	5.323204
O	1.774401	5.323204	3.548803
Fe	3.548803	0.000000	0.000000
Li	5.323204	1.774401	1.774401
O	3.548803	1.774401	1.774401
O	5.323204	0.000000	1.774401
O	5.323204	1.774401	0.000000
Fe	3.548803	0.000000	3.548803
Li	5.323204	1.774401	5.323204
O	3.548803	1.774401	5.323204
O	5.323204	0.000000	5.323204
O	5.323204	1.774401	3.548803
Fe	3.548803	3.548803	0.000000
Li	5.323204	5.323204	1.774401
O	3.548803	5.323204	1.774401
O	5.323204	3.548803	1.774401
O	5.323204	5.323204	0.000000
Fe	3.548803	3.548803	3.548803
Li	5.323204	5.323204	5.323204
O	3.548803	5.323204	5.323204
O	5.323204	3.548803	5.323204
O	5.323204	5.323204	3.548803
