40

B	0.000000	0.000000	0.000000
Cd	2.123820	2.123820	2.123820
O	0.000000	2.123820	2.123820
O	2.123820	0.000000	2.123820
O	2.123820	2.123820	0.000000
B	0.000000	0.000000	4.247641
Cd	2.123820	2.123820	6.371461
O	0.000000	2.123820	6.371461
O	2.123820	0.000000	6.371461
O	2.123820	2.123820	4.247641
B	0.000000	4.247641	0.000000
Cd	2.123820	6.371461	2.123820
O	0.000000	6.371461	2.123820
O	2.123820	4.247641	2.123820
O	2.123820	6.371461	0.000000
B	0.000000	4.247641	4.247641
Cd	2.123820	6.371461	6.371461
O	0.000000	6.371461	6.371461
O	2.123820	4.247641	6.371461
O	2.123820	6.371461	4.247641
B	4.247641	0.000000	0.000000
Cd	6.371461	2.123820	2.123820
O	4.247641	2.123820	2.123820
O	6.371461	0.000000	2.123820
O	6.371461	2.123820	0.000000
B	4.247641	0.000000	4.247641
Cd	6.371461	2.123820	6.371461
O	4.247641	2.123820	6.371461
O	6.371461	0.000000	6.371461
O	6.371461	2.123820	4.247641
B	4.247641	4.247641	0.000000
Cd	6.371461	6.371461	2.123820
O	4.247641	6.371461	2.123820
O	6.371461	4.247641	2.123820
O	6.371461	6.371461	0.000000
B	4.247641	4.247641	4.247641
Cd	6.371461	6.371461	6.371461
O	4.247641	6.371461	6.371461
O	6.371461	4.247641	6.371461
O	6.371461	6.371461	4.247641
