40

O	2.052630	2.052630	0.000000
O	0.000000	2.052630	2.052630
O	2.052630	0.000000	2.052630
Os_pv	0.000000	0.000000	0.000000
Zr_sv	2.052630	2.052630	2.052630
O	2.052630	2.052630	4.105269
O	0.000000	2.052630	6.157899
O	2.052630	0.000000	6.157899
Os_pv	0.000000	0.000000	4.105269
Zr_sv	2.052630	2.052630	6.157899
O	2.052630	6.157899	0.000000
O	0.000000	6.157899	2.052630
O	2.052630	4.105269	2.052630
Os_pv	0.000000	4.105269	0.000000
Zr_sv	2.052630	6.157899	2.052630
O	2.052630	6.157899	4.105269
O	0.000000	6.157899	6.157899
O	2.052630	4.105269	6.157899
Os_pv	0.000000	4.105269	4.105269
Zr_sv	2.052630	6.157899	6.157899
O	6.157899	2.052630	0.000000
O	4.105269	2.052630	2.052630
O	6.157899	0.000000	2.052630
Os_pv	4.105269	0.000000	0.000000
Zr_sv	6.157899	2.052630	2.052630
O	6.157899	2.052630	4.105269
O	4.105269	2.052630	6.157899
O	6.157899	0.000000	6.157899
Os_pv	4.105269	0.000000	4.105269
Zr_sv	6.157899	2.052630	6.157899
O	6.157899	6.157899	0.000000
O	4.105269	6.157899	2.052630
O	6.157899	4.105269	2.052630
Os_pv	4.105269	4.105269	0.000000
Zr_sv	6.157899	6.157899	2.052630
O	6.157899	6.157899	4.105269
O	4.105269	6.157899	6.157899
O	6.157899	4.105269	6.157899
Os_pv	4.105269	4.105269	4.105269
Zr_sv	6.157899	6.157899	6.157899
