40

O	2.107280	2.107280	0.000000
O	0.000000	2.107280	2.107280
O	2.107280	0.000000	2.107280
Th	0.000000	0.000000	0.000000
Tm	2.107280	2.107280	2.107280
O	2.107280	2.107280	4.214576
O	0.000000	2.107280	6.321856
O	2.107280	0.000000	6.321856
Th	0.000000	0.000000	4.214576
Tm	2.107280	2.107280	6.321856
O	2.107280	6.321856	0.000000
O	0.000000	6.321856	2.107280
O	2.107280	4.214576	2.107280
Th	0.000000	4.214576	0.000000
Tm	2.107280	6.321856	2.107280
O	2.107280	6.321856	4.214576
O	0.000000	6.321856	6.321856
O	2.107280	4.214576	6.321856
Th	0.000000	4.214576	4.214576
Tm	2.107280	6.321856	6.321856
O	6.321856	2.107280	0.000000
O	4.214576	2.107280	2.107280
O	6.321856	0.000000	2.107280
Th	4.214576	0.000000	0.000000
Tm	6.321856	2.107280	2.107280
O	6.321856	2.107280	4.214576
O	4.214576	2.107280	6.321856
O	6.321856	0.000000	6.321856
Th	4.214576	0.000000	4.214576
Tm	6.321856	2.107280	6.321856
O	6.321856	6.321856	0.000000
O	4.214576	6.321856	2.107280
O	6.321856	4.214576	2.107280
Th	4.214576	4.214576	0.000000
Tm	6.321856	6.321856	2.107280
O	6.321856	6.321856	4.214576
O	4.214576	6.321856	6.321856
O	6.321856	4.214576	6.321856
Th	4.214576	4.214576	4.214576
Tm	6.321856	6.321856	6.321856
