112

O	4.912609	3.473739	8.508888
O	1.758767	1.243636	5.620098
O	2.501766	3.345155	4.333186
O	3.987764	1.243636	4.333186
O	4.169610	1.372220	7.221976
O	2.683612	3.473739	7.221976
O	1.758767	1.243636	3.046273
O	4.912609	3.473739	5.935064
Mg	0.833922	0.589672	1.444395
Mg	5.837454	4.127703	10.110766
Al	3.335688	2.358687	2.888790
Al	3.335688	2.358687	5.777581
Al	0.833922	2.358687	4.333186
Al	2.501766	0.000000	4.333186
O	4.912609	3.473739	14.286469
O	1.758767	1.243636	11.397678
O	2.501766	3.345155	10.110766
O	3.987764	1.243636	10.110766
O	4.169610	1.372220	12.999557
O	2.683612	3.473739	12.999557
O	1.758767	1.243636	8.823854
O	4.912609	3.473739	11.712645
Mg	0.833922	0.589672	7.221976
Mg	5.837454	4.127703	15.888347
Al	3.335688	2.358687	8.666371
Al	3.335688	2.358687	11.555162
Al	0.833922	2.358687	10.110766
Al	2.501766	0.000000	10.110766
O	6.580453	8.191114	11.397678
O	3.426611	5.961011	8.508888
O	4.169610	8.062529	7.221976
O	5.655608	5.961011	7.221976
O	5.837454	6.089595	10.110766
O	4.351456	8.191114	10.110766
O	3.426611	5.961011	5.935064
O	6.580453	8.191114	8.823854
Mg	2.501766	5.307047	4.333186
Mg	7.505298	8.845078	12.999557
Al	5.003532	7.076062	5.777581
Al	5.003532	7.076062	8.666371
Al	2.501766	7.076062	7.221976
Al	4.169610	4.717375	7.221976
O	6.580453	8.191114	17.175259
O	3.426611	5.961011	14.286469
O	4.169610	8.062529	12.999557
O	5.655608	5.961011	12.999557
O	5.837454	6.089595	15.888347
O	4.351456	8.191114	15.888347
O	3.426611	5.961011	11.712645
O	6.580453	8.191114	14.601435
Mg	2.501766	5.307047	10.110766
Mg	7.505298	8.845078	18.777138
Al	5.003532	7.076062	11.555162
Al	5.003532	7.076062	14.443952
Al	2.501766	7.076062	12.999557
Al	4.169610	4.717375	12.999557
O	9.916141	3.473739	11.397678
O	6.762299	1.243636	8.508888
O	7.505298	3.345155	7.221976
O	8.991296	1.243636	7.221976
O	9.173142	1.372220	10.110766
O	7.687143	3.473739	10.110766
O	6.762299	1.243636	5.935064
O	9.916141	3.473739	8.823854
Mg	5.837454	0.589672	4.333186
Mg	10.840985	4.127703	12.999557
Al	8.339220	2.358687	5.777581
Al	8.339220	2.358687	8.666371
Al	5.837454	2.358687	7.221976
Al	7.505298	0.000000	7.221976
O	9.916141	3.473739	17.175259
O	6.762299	1.243636	14.286469
O	7.505298	3.345155	12.999557
O	8.991296	1.243636	12.999557
O	9.173142	1.372220	15.888347
O	7.687143	3.473739	15.888347
O	6.762299	1.243636	11.712645
O	9.916141	3.473739	14.601435
Mg	5.837454	0.589672	10.110766
Mg	10.840985	4.127703	18.777138
Al	8.339220	2.358687	11.555162
Al	8.339220	2.358687	14.443952
Al	5.837454	2.358687	12.999557
Al	7.505298	0.000000	12.999557
O	11.583984	8.191114	14.286469
O	8.430142	5.961011	11.397678
O	9.173141	8.062529	10.110766
O	10.659140	5.961011	10.110766
O	10.840985	6.089595	12.999557
O	9.354987	8.191114	12.999557
O	8.430142	5.961011	8.823854
O	11.583984	8.191114	11.712645
Mg	7.505298	5.307047	7.221976
Mg	12.508829	8.845078	15.888347
Al	10.007063	7.076062	8.666371
Al	10.007063	7.076062	11.555162
Al	7.505298	7.076062	10.110766
Al	9.173142	4.717375	10.110766
O	11.583984	8.191114	20.064050
O	8.430142	5.961011	17.175259
O	9.173141	8.062529	15.888347
O	10.659140	5.961011	15.888347
O	10.840985	6.089595	18.777138
O	9.354987	8.191114	18.777138
O	8.430142	5.961011	14.601435
O	11.583984	8.191114	17.490225
Mg	7.505298	5.307047	12.999557
Mg	12.508829	8.845078	21.665928
Al	10.007063	7.076062	14.443952
Al	10.007063	7.076062	17.332742
Al	7.505298	7.076062	15.888347
Al	9.173142	4.717375	15.888347
