40

O	0.000000	1.919317	1.919317
O	1.919317	0.000000	1.919317
O	1.919317	1.919317	0.000000
Se	0.000000	0.000000	0.000000
V	1.919317	1.919317	1.919317
O	0.000000	1.919317	5.757950
O	1.919317	0.000000	5.757950
O	1.919317	1.919317	3.838634
Se	0.000000	0.000000	3.838634
V	1.919317	1.919317	5.757950
O	0.000000	5.757950	1.919317
O	1.919317	3.838634	1.919317
O	1.919317	5.757950	0.000000
Se	0.000000	3.838634	0.000000
V	1.919317	5.757950	1.919317
O	0.000000	5.757950	5.757950
O	1.919317	3.838634	5.757950
O	1.919317	5.757950	3.838634
Se	0.000000	3.838634	3.838634
V	1.919317	5.757950	5.757950
O	3.838634	1.919317	1.919317
O	5.757950	0.000000	1.919317
O	5.757950	1.919317	0.000000
Se	3.838634	0.000000	0.000000
V	5.757950	1.919317	1.919317
O	3.838634	1.919317	5.757950
O	5.757950	0.000000	5.757950
O	5.757950	1.919317	3.838634
Se	3.838634	0.000000	3.838634
V	5.757950	1.919317	5.757950
O	3.838634	5.757950	1.919317
O	5.757950	3.838634	1.919317
O	5.757950	5.757950	0.000000
Se	3.838634	3.838634	0.000000
V	5.757950	5.757950	1.919317
O	3.838634	5.757950	5.757950
O	5.757950	3.838634	5.757950
O	5.757950	5.757950	3.838634
Se	3.838634	3.838634	3.838634
V	5.757950	5.757950	5.757950
