40

Bi	0.000000	0.000000	0.000000
O	2.112679	2.112679	0.000000
O	2.112679	0.000000	2.112679
O	0.000000	2.112679	2.112679
Sb	2.112679	2.112679	2.112679
Bi	0.000000	0.000000	4.225358
O	2.112679	2.112679	4.225358
O	2.112679	0.000000	6.338037
O	0.000000	2.112679	6.338037
Sb	2.112679	2.112679	6.338037
Bi	0.000000	4.225358	0.000000
O	2.112679	6.338037	0.000000
O	2.112679	4.225358	2.112679
O	0.000000	6.338037	2.112679
Sb	2.112679	6.338037	2.112679
Bi	0.000000	4.225358	4.225358
O	2.112679	6.338037	4.225358
O	2.112679	4.225358	6.338037
O	0.000000	6.338037	6.338037
Sb	2.112679	6.338037	6.338037
Bi	4.225358	0.000000	0.000000
O	6.338037	2.112679	0.000000
O	6.338037	0.000000	2.112679
O	4.225358	2.112679	2.112679
Sb	6.338037	2.112679	2.112679
Bi	4.225358	0.000000	4.225358
O	6.338037	2.112679	4.225358
O	6.338037	0.000000	6.338037
O	4.225358	2.112679	6.338037
Sb	6.338037	2.112679	6.338037
Bi	4.225358	4.225358	0.000000
O	6.338037	6.338037	0.000000
O	6.338037	4.225358	2.112679
O	4.225358	6.338037	2.112679
Sb	6.338037	6.338037	2.112679
Bi	4.225358	4.225358	4.225358
O	6.338037	6.338037	4.225358
O	6.338037	4.225358	6.338037
O	4.225358	6.338037	6.338037
Sb	6.338037	6.338037	6.338037
