40

Co	0.000000	0.000000	0.000000
Gd_3	2.137260	2.137260	2.137260
O	2.137260	0.000000	2.137260
O	0.000000	2.137260	2.137260
O	2.137260	2.137260	0.000000
Co	0.000000	0.000000	4.274508
Gd_3	2.137260	2.137260	6.411768
O	2.137260	0.000000	6.411768
O	0.000000	2.137260	6.411768
O	2.137260	2.137260	4.274508
Co	0.000000	4.274508	0.000000
Gd_3	2.137260	6.411768	2.137260
O	2.137260	4.274508	2.137260
O	0.000000	6.411768	2.137260
O	2.137260	6.411768	0.000000
Co	0.000000	4.274508	4.274508
Gd_3	2.137260	6.411768	6.411768
O	2.137260	4.274508	6.411768
O	0.000000	6.411768	6.411768
O	2.137260	6.411768	4.274508
Co	4.274508	0.000000	0.000000
Gd_3	6.411768	2.137260	2.137260
O	6.411768	0.000000	2.137260
O	4.274508	2.137260	2.137260
O	6.411768	2.137260	0.000000
Co	4.274508	0.000000	4.274508
Gd_3	6.411768	2.137260	6.411768
O	6.411768	0.000000	6.411768
O	4.274508	2.137260	6.411768
O	6.411768	2.137260	4.274508
Co	4.274508	4.274508	0.000000
Gd_3	6.411768	6.411768	2.137260
O	6.411768	4.274508	2.137260
O	4.274508	6.411768	2.137260
O	6.411768	6.411768	0.000000
Co	4.274508	4.274508	4.274508
Gd_3	6.411768	6.411768	6.411768
O	6.411768	4.274508	6.411768
O	4.274508	6.411768	6.411768
O	6.411768	6.411768	4.274508
