112

Be	0.000000	0.000000	0.000000
Be	2.188217	-2.188471	-2.188471
O	3.176417	-1.199911	-1.199911
O	-1.200016	1.199911	-3.177031
O	1.200016	-1.199911	-3.177031
O	0.988200	0.988560	-0.988560
O	5.576449	1.199911	-1.199911
O	0.988200	3.388382	-3.388382
O	3.388233	3.388382	-0.988560
O	3.388233	0.988560	-3.388382
Yb	-1.094108	-1.094236	-3.282707
Yb	3.282325	1.094236	-1.094236
Yb	5.470541	-1.094236	-1.094236
Yb	1.094108	1.094236	-3.282707
Be	4.376433	4.376942	0.000000
Be	6.564650	2.188471	-2.188471
O	7.552850	3.177031	-1.199911
O	3.176417	5.576854	-3.177031
O	5.576449	3.177031	-3.177031
O	5.364633	5.365502	-0.988560
O	9.952882	5.576854	-1.199911
O	5.364633	7.765325	-3.388382
O	7.764666	7.765325	-0.988560
O	7.764666	5.365502	-3.388382
Yb	3.282325	3.282707	-3.282707
Yb	7.658758	5.471178	-1.094236
Yb	9.846974	3.282707	-1.094236
Yb	5.470541	5.471178	-3.282707
Be	-4.376433	0.000000	-4.376942
Be	-2.188217	-2.188471	-6.565414
O	-1.200016	-1.199911	-5.576854
O	-5.576449	1.199911	-7.553973
O	-3.176417	-1.199911	-7.553973
O	-3.388233	0.988560	-5.365502
O	1.200016	1.199911	-5.576854
O	-3.388233	3.388382	-7.765325
O	-0.988200	3.388382	-5.365502
O	-0.988200	0.988560	-7.765325
Yb	-5.470541	-1.094236	-7.659649
Yb	-1.094108	1.094236	-5.471178
Yb	1.094108	-1.094236	-5.471178
Yb	-3.282325	1.094236	-7.659649
Be	0.000000	4.376942	-4.376942
Be	2.188217	2.188471	-6.565414
O	3.176417	3.177031	-5.576854
O	-1.200016	5.576854	-7.553973
O	1.200016	3.177031	-7.553973
O	0.988200	5.365502	-5.365502
O	5.576449	5.576854	-5.576854
O	0.988200	7.765325	-7.765325
O	3.388233	7.765325	-5.365502
O	3.388233	5.365502	-7.765325
Yb	-1.094108	3.282707	-7.659649
Yb	3.282325	5.471178	-5.471178
Yb	5.470541	3.282707	-5.471178
Yb	1.094108	5.471178	-7.659649
Be	4.376433	-4.376942	0.000000
Be	6.564650	-6.565414	-2.188471
O	7.552850	-5.576854	-1.199911
O	3.176417	-3.177031	-3.177031
O	5.576449	-5.576854	-3.177031
O	5.364633	-3.388382	-0.988560
O	9.952882	-3.177031	-1.199911
O	5.364633	-0.988560	-3.388382
O	7.764666	-0.988560	-0.988560
O	7.764666	-3.388382	-3.388382
Yb	3.282325	-5.471178	-3.282707
Yb	7.658758	-3.282707	-1.094236
Yb	9.846974	-5.471178	-1.094236
Yb	5.470541	-3.282707	-3.282707
Be	8.752866	0.000000	0.000000
Be	10.941083	-2.188471	-2.188471
O	11.929283	-1.199911	-1.199911
O	7.552850	1.199911	-3.177031
O	9.952882	-1.199911	-3.177031
O	9.741066	0.988560	-0.988560
O	14.329316	1.199911	-1.199911
O	9.741066	3.388382	-3.388382
O	12.141099	3.388382	-0.988560
O	12.141099	0.988560	-3.388382
Yb	7.658758	-1.094236	-3.282707
Yb	12.035191	1.094236	-1.094236
Yb	14.223407	-1.094236	-1.094236
Yb	9.846974	1.094236	-3.282707
Be	0.000000	-4.376942	-4.376942
Be	2.188217	-6.565414	-6.565414
O	3.176417	-5.576854	-5.576854
O	-1.200016	-3.177031	-7.553973
O	1.200016	-5.576854	-7.553973
O	0.988200	-3.388382	-5.365502
O	5.576449	-3.177031	-5.576854
O	0.988200	-0.988560	-7.765325
O	3.388233	-0.988560	-5.365502
O	3.388233	-3.388382	-7.765325
Yb	-1.094108	-5.471178	-7.659649
Yb	3.282325	-3.282707	-5.471178
Yb	5.470541	-5.471178	-5.471178
Yb	1.094108	-3.282707	-7.659649
Be	4.376433	0.000000	-4.376942
Be	6.564650	-2.188471	-6.565414
O	7.552850	-1.199911	-5.576854
O	3.176417	1.199911	-7.553973
O	5.576449	-1.199911	-7.553973
O	5.364633	0.988560	-5.365502
O	9.952882	1.199911	-5.576854
O	5.364633	3.388382	-7.765325
O	7.764666	3.388382	-5.365502
O	7.764666	0.988560	-7.765325
Yb	3.282325	-1.094236	-7.659649
Yb	7.658758	1.094236	-5.471178
Yb	9.846974	-1.094236	-5.471178
Yb	5.470541	1.094236	-7.659649
