40

O	2.046559	2.046559	0.000000
O	0.000000	2.046559	2.046559
O	2.046559	0.000000	2.046559
Pb	0.000000	0.000000	0.000000
Sn	2.046559	2.046559	2.046559
O	2.046559	2.046559	4.093126
O	0.000000	2.046559	6.139685
O	2.046559	0.000000	6.139685
Pb	0.000000	0.000000	4.093126
Sn	2.046559	2.046559	6.139685
O	2.046559	6.139685	0.000000
O	0.000000	6.139685	2.046559
O	2.046559	4.093126	2.046559
Pb	0.000000	4.093126	0.000000
Sn	2.046559	6.139685	2.046559
O	2.046559	6.139685	4.093126
O	0.000000	6.139685	6.139685
O	2.046559	4.093126	6.139685
Pb	0.000000	4.093126	4.093126
Sn	2.046559	6.139685	6.139685
O	6.139685	2.046559	0.000000
O	4.093126	2.046559	2.046559
O	6.139685	0.000000	2.046559
Pb	4.093126	0.000000	0.000000
Sn	6.139685	2.046559	2.046559
O	6.139685	2.046559	4.093126
O	4.093126	2.046559	6.139685
O	6.139685	0.000000	6.139685
Pb	4.093126	0.000000	4.093126
Sn	6.139685	2.046559	6.139685
O	6.139685	6.139685	0.000000
O	4.093126	6.139685	2.046559
O	6.139685	4.093126	2.046559
Pb	4.093126	4.093126	0.000000
Sn	6.139685	6.139685	2.046559
O	6.139685	6.139685	4.093126
O	4.093126	6.139685	6.139685
O	6.139685	4.093126	6.139685
Pb	4.093126	4.093126	4.093126
Sn	6.139685	6.139685	6.139685
