40

O	2.119330	2.119330	0.000000
O	0.000000	2.119330	2.119330
O	2.119330	0.000000	2.119330
Pb_d	2.119330	2.119330	2.119330
Sn_d	0.000000	0.000000	0.000000
O	2.119330	2.119330	4.238661
O	0.000000	2.119330	6.357991
O	2.119330	0.000000	6.357991
Pb_d	2.119330	2.119330	6.357991
Sn_d	0.000000	0.000000	4.238661
O	2.119330	6.357991	0.000000
O	0.000000	6.357991	2.119330
O	2.119330	4.238661	2.119330
Pb_d	2.119330	6.357991	2.119330
Sn_d	0.000000	4.238661	0.000000
O	2.119330	6.357991	4.238661
O	0.000000	6.357991	6.357991
O	2.119330	4.238661	6.357991
Pb_d	2.119330	6.357991	6.357991
Sn_d	0.000000	4.238661	4.238661
O	6.357991	2.119330	0.000000
O	4.238661	2.119330	2.119330
O	6.357991	0.000000	2.119330
Pb_d	6.357991	2.119330	2.119330
Sn_d	4.238661	0.000000	0.000000
O	6.357991	2.119330	4.238661
O	4.238661	2.119330	6.357991
O	6.357991	0.000000	6.357991
Pb_d	6.357991	2.119330	6.357991
Sn_d	4.238661	0.000000	4.238661
O	6.357991	6.357991	0.000000
O	4.238661	6.357991	2.119330
O	6.357991	4.238661	2.119330
Pb_d	6.357991	6.357991	2.119330
Sn_d	4.238661	4.238661	0.000000
O	6.357991	6.357991	4.238661
O	4.238661	6.357991	6.357991
O	6.357991	4.238661	6.357991
Pb_d	6.357991	6.357991	6.357991
Sn_d	4.238661	4.238661	4.238661
