112

Cs	0.000000	0.000000	0.000000
Cs	2.526810	-2.527246	-2.527246
Ho	-1.263400	-1.263618	-3.790874
Ho	3.790210	1.263618	-1.263618
Ho	1.263400	1.263618	-3.790874
Ho	6.317019	-1.263618	-1.263618
O	-0.990512	0.990340	-4.064142
O	4.063098	-0.990339	-0.990339
O	0.990512	-0.990340	-4.064142
O	1.536298	1.536906	-1.536906
O	6.044121	0.990340	-0.990339
O	1.536298	3.517595	-3.517595
O	3.517321	3.517595	-1.536906
O	3.517321	1.536906	-3.517595
Cs	5.053615	5.054499	0.000000
Cs	7.580425	2.527253	-2.527246
Ho	3.790215	3.790881	-3.790874
Ho	8.843825	6.318117	-1.263618
Ho	6.317015	6.318117	-3.790874
Ho	11.370635	3.790881	-1.263618
O	4.063104	6.044838	-4.064142
O	9.116713	4.064159	-0.990339
O	6.044127	4.064159	-4.064142
O	6.589914	6.591405	-1.536906
O	11.097736	6.044838	-0.990339
O	6.589914	8.572094	-3.517595
O	8.570937	8.572094	-1.536906
O	8.570937	6.591405	-3.517595
Cs	-5.053615	0.000000	-5.054499
Cs	-2.526806	-2.527246	-7.581745
Ho	-6.317015	-1.263618	-8.845373
Ho	-1.263406	1.263618	-6.318117
Ho	-3.790215	1.263618	-8.845373
Ho	1.263404	-1.263618	-6.318117
O	-6.044127	0.990340	-9.118641
O	-0.990517	-0.990339	-6.044838
O	-4.063104	-0.990340	-9.118641
O	-3.517317	1.536906	-6.591405
O	0.990506	0.990340	-6.044838
O	-3.517317	3.517595	-8.572094
O	-1.536294	3.517595	-6.591405
O	-1.536294	1.536906	-8.572094
Cs	0.000000	5.054499	-5.054499
Cs	2.526810	2.527253	-7.581745
Ho	-1.263400	3.790881	-8.845373
Ho	3.790210	6.318117	-6.318117
Ho	1.263400	6.318117	-8.845373
Ho	6.317019	3.790881	-6.318117
O	-0.990512	6.044838	-9.118641
O	4.063098	4.064159	-6.044838
O	0.990512	4.064159	-9.118641
O	1.536298	6.591405	-6.591405
O	6.044121	6.044838	-6.044838
O	1.536298	8.572094	-8.572094
O	3.517321	8.572094	-6.591405
O	3.517321	6.591405	-8.572094
Cs	5.053615	-5.054499	0.000000
Cs	7.580425	-7.581745	-2.527246
Ho	3.790215	-6.318117	-3.790874
Ho	8.843825	-3.790881	-1.263618
Ho	6.317015	-3.790881	-3.790874
Ho	11.370635	-6.318117	-1.263618
O	4.063104	-4.064159	-4.064142
O	9.116713	-6.044838	-0.990339
O	6.044127	-6.044838	-4.064142
O	6.589914	-3.517593	-1.536906
O	11.097736	-4.064159	-0.990339
O	6.589914	-1.536904	-3.517595
O	8.570937	-1.536904	-1.536906
O	8.570937	-3.517593	-3.517595
Cs	10.107231	0.000000	0.000000
Cs	12.634040	-2.527246	-2.527246
Ho	8.843831	-1.263618	-3.790874
Ho	13.897440	1.263618	-1.263618
Ho	11.370630	1.263618	-3.790874
Ho	16.424250	-1.263618	-1.263618
O	9.116719	0.990340	-4.064142
O	14.170329	-0.990339	-0.990339
O	11.097742	-0.990340	-4.064142
O	11.643529	1.536906	-1.536906
O	16.151352	0.990340	-0.990339
O	11.643529	3.517595	-3.517595
O	13.624552	3.517595	-1.536906
O	13.624552	1.536906	-3.517595
Cs	0.000000	-5.054499	-5.054499
Cs	2.526810	-7.581745	-7.581745
Ho	-1.263400	-6.318117	-8.845373
Ho	3.790210	-3.790881	-6.318117
Ho	1.263400	-3.790881	-8.845373
Ho	6.317019	-6.318117	-6.318117
O	-0.990512	-4.064159	-9.118641
O	4.063098	-6.044838	-6.044838
O	0.990512	-6.044838	-9.118641
O	1.536298	-3.517593	-6.591405
O	6.044121	-4.064159	-6.044838
O	1.536298	-1.536904	-8.572094
O	3.517321	-1.536904	-6.591405
O	3.517321	-3.517593	-8.572094
Cs	5.053615	0.000000	-5.054499
Cs	7.580425	-2.527246	-7.581745
Ho	3.790215	-1.263618	-8.845373
Ho	8.843825	1.263618	-6.318117
Ho	6.317015	1.263618	-8.845373
Ho	11.370635	-1.263618	-6.318117
O	4.063104	0.990340	-9.118641
O	9.116713	-0.990339	-6.044838
O	6.044127	-0.990340	-9.118641
O	6.589914	1.536906	-6.591405
O	11.097736	0.990340	-6.044838
O	6.589914	3.517595	-8.572094
O	8.570937	3.517595	-6.591405
O	8.570937	1.536906	-8.572094
