112

Li	0.000000	0.000000	0.000000
Li	2.086187	-2.086122	-2.086122
O	-0.966171	0.965774	-3.206470
O	3.206203	-0.965774	-0.965774
O	0.966171	-0.965774	-3.206470
O	1.120016	1.120348	-1.120348
O	5.138546	0.965774	-0.965774
O	1.120016	3.051905	-3.051905
O	3.052358	3.051905	-1.120348
O	3.052358	1.120348	-3.051905
Zn	-1.043089	-1.043066	-3.129187
Zn	1.043089	1.043066	-3.129187
Zn	5.215463	-1.043066	-1.043066
Zn	3.129276	1.043066	-1.043066
Li	4.172371	4.172253	0.000000
Li	6.258558	2.086131	-2.086122
O	3.206199	5.138026	-3.206470
O	7.378573	3.206479	-0.965774
O	5.138542	3.206479	-3.206470
O	5.292386	5.292600	-1.120348
O	9.310916	5.138026	-0.965774
O	5.292386	7.224158	-3.051905
O	7.224729	7.224158	-1.120348
O	7.224729	5.292600	-3.051905
Zn	3.129282	3.129187	-3.129187
Zn	5.215459	5.215318	-3.129187
Zn	9.387833	3.129187	-1.043066
Zn	7.301646	5.215318	-1.043066
Li	-4.172371	0.000000	-4.172253
Li	-2.086184	-2.086122	-6.258374
O	-5.138542	0.965774	-7.378722
O	-0.966168	-0.965774	-5.138026
O	-3.206199	-0.965774	-7.378722
O	-3.052355	1.120348	-5.292600
O	0.966175	0.965774	-5.138026
O	-3.052355	3.051905	-7.224158
O	-1.120012	3.051905	-5.292600
O	-1.120012	1.120348	-7.224158
Zn	-5.215459	-1.043066	-7.301440
Zn	-3.129282	1.043066	-7.301440
Zn	1.043092	-1.043066	-5.215318
Zn	-1.043095	1.043066	-5.215318
Li	0.000000	4.172253	-4.172253
Li	2.086187	2.086131	-6.258374
O	-0.966171	5.138026	-7.378722
O	3.206203	3.206479	-5.138026
O	0.966171	3.206479	-7.378722
O	1.120016	5.292600	-5.292600
O	5.138546	5.138026	-5.138026
O	1.120016	7.224158	-7.224158
O	3.052358	7.224158	-5.292600
O	3.052358	5.292600	-7.224158
Zn	-1.043089	3.129187	-7.301440
Zn	1.043089	5.215318	-7.301440
Zn	5.215463	3.129187	-5.215318
Zn	3.129276	5.215318	-5.215318
Li	4.172371	-4.172253	0.000000
Li	6.258558	-6.258374	-2.086122
O	3.206199	-3.206479	-3.206470
O	7.378573	-5.138026	-0.965774
O	5.138542	-5.138026	-3.206470
O	5.292386	-3.051905	-1.120348
O	9.310916	-3.206479	-0.965774
O	5.292386	-1.120347	-3.051905
O	7.224729	-1.120347	-1.120348
O	7.224729	-3.051905	-3.051905
Zn	3.129282	-5.215318	-3.129187
Zn	5.215459	-3.129187	-3.129187
Zn	9.387833	-5.215318	-1.043066
Zn	7.301646	-3.129187	-1.043066
Li	8.344742	0.000000	0.000000
Li	10.430929	-2.086122	-2.086122
O	7.378570	0.965774	-3.206470
O	11.550944	-0.965774	-0.965774
O	9.310913	-0.965774	-3.206470
O	9.464757	1.120348	-1.120348
O	13.483287	0.965774	-0.965774
O	9.464757	3.051905	-3.051905
O	11.397100	3.051905	-1.120348
O	11.397100	1.120348	-3.051905
Zn	7.301653	-1.043066	-3.129187
Zn	9.387830	1.043066	-3.129187
Zn	13.560204	-1.043066	-1.043066
Zn	11.474017	1.043066	-1.043066
Li	0.000000	-4.172253	-4.172253
Li	2.086187	-6.258374	-6.258374
O	-0.966171	-3.206479	-7.378722
O	3.206203	-5.138026	-5.138026
O	0.966171	-5.138026	-7.378722
O	1.120016	-3.051905	-5.292600
O	5.138546	-3.206479	-5.138026
O	1.120016	-1.120347	-7.224158
O	3.052358	-1.120347	-5.292600
O	3.052358	-3.051905	-7.224158
Zn	-1.043089	-5.215318	-7.301440
Zn	1.043089	-3.129187	-7.301440
Zn	5.215463	-5.215318	-5.215318
Zn	3.129276	-3.129187	-5.215318
Li	4.172371	0.000000	-4.172253
Li	6.258558	-2.086122	-6.258374
O	3.206199	0.965774	-7.378722
O	7.378573	-0.965774	-5.138026
O	5.138542	-0.965774	-7.378722
O	5.292386	1.120348	-5.292600
O	9.310916	0.965774	-5.138026
O	5.292386	3.051905	-7.224158
O	7.224729	3.051905	-5.292600
O	7.224729	1.120348	-7.224158
Zn	3.129282	-1.043066	-7.301440
Zn	5.215459	1.043066	-7.301440
Zn	9.387833	-1.043066	-5.215318
Zn	7.301646	1.043066	-5.215318
