64

O	0.837605	2.369105	1.450774
O	2.512815	0.000000	1.450774
O	0.000000	0.000000	0.000000
O	0.000000	0.000000	2.901549
Al	5.863235	4.145933	10.155420
Al	0.837605	0.592276	1.450774
Cs	4.188025	2.961381	7.253871
Cs	2.512815	1.776828	4.352323
O	0.837605	2.369105	7.253871
O	2.512815	0.000000	7.253871
O	0.000000	0.000000	5.803097
O	0.000000	0.000000	8.704646
Al	5.863235	4.145933	15.958517
Al	0.837605	0.592276	7.253871
Cs	4.188025	2.961381	13.056969
Cs	2.512815	1.776828	10.155420
O	2.512815	7.107314	4.352323
O	4.188025	4.738209	4.352323
O	1.675210	4.738209	2.901549
O	1.675210	4.738209	5.803097
Al	7.538444	8.884142	13.056969
Al	2.512815	5.330485	4.352323
Cs	5.863235	7.699590	10.155420
Cs	4.188025	6.515037	7.253871
O	2.512815	7.107314	10.155420
O	4.188025	4.738209	10.155420
O	1.675210	4.738209	8.704646
O	1.675210	4.738209	11.606194
Al	7.538444	8.884142	18.860066
Al	2.512815	5.330485	10.155420
Cs	5.863235	7.699590	15.958517
Cs	4.188025	6.515037	13.056969
O	5.863235	2.369105	4.352323
O	7.538444	0.000000	4.352323
O	5.025630	0.000000	2.901549
O	5.025630	0.000000	5.803097
Al	10.888864	4.145933	13.056969
Al	5.863235	0.592276	4.352323
Cs	9.213654	2.961381	10.155420
Cs	7.538444	1.776828	7.253871
O	5.863235	2.369105	10.155420
O	7.538444	0.000000	10.155420
O	5.025630	0.000000	8.704646
O	5.025630	0.000000	11.606194
Al	10.888864	4.145933	18.860066
Al	5.863235	0.592276	10.155420
Cs	9.213654	2.961381	15.958517
Cs	7.538444	1.776828	13.056969
O	7.538444	7.107314	7.253871
O	9.213654	4.738209	7.253871
O	6.700839	4.738209	5.803097
O	6.700839	4.738209	8.704646
Al	12.564074	8.884142	15.958517
Al	7.538444	5.330485	7.253871
Cs	10.888864	7.699590	13.056969
Cs	9.213654	6.515037	10.155420
O	7.538444	7.107314	13.056969
O	9.213654	4.738209	13.056969
O	6.700839	4.738209	11.606194
O	6.700839	4.738209	14.507743
Al	12.564074	8.884142	21.761614
Al	7.538444	5.330485	13.056969
Cs	10.888864	7.699590	18.860066
Cs	9.213654	6.515037	15.958517
