40

Al	1.845880	1.845880	1.845880
Mn	0.000000	0.000000	0.000000
O	1.845880	1.845880	0.000000
O	1.845880	0.000000	1.845880
O	0.000000	1.845880	1.845880
Al	1.845880	1.845880	5.537641
Mn	0.000000	0.000000	3.691760
O	1.845880	1.845880	3.691760
O	1.845880	0.000000	5.537641
O	0.000000	1.845880	5.537641
Al	1.845880	5.537641	1.845880
Mn	0.000000	3.691760	0.000000
O	1.845880	5.537641	0.000000
O	1.845880	3.691760	1.845880
O	0.000000	5.537641	1.845880
Al	1.845880	5.537641	5.537641
Mn	0.000000	3.691760	3.691760
O	1.845880	5.537641	3.691760
O	1.845880	3.691760	5.537641
O	0.000000	5.537641	5.537641
Al	5.537641	1.845880	1.845880
Mn	3.691760	0.000000	0.000000
O	5.537641	1.845880	0.000000
O	5.537641	0.000000	1.845880
O	3.691760	1.845880	1.845880
Al	5.537641	1.845880	5.537641
Mn	3.691760	0.000000	3.691760
O	5.537641	1.845880	3.691760
O	5.537641	0.000000	5.537641
O	3.691760	1.845880	5.537641
Al	5.537641	5.537641	1.845880
Mn	3.691760	3.691760	0.000000
O	5.537641	5.537641	0.000000
O	5.537641	3.691760	1.845880
O	3.691760	5.537641	1.845880
Al	5.537641	5.537641	5.537641
Mn	3.691760	3.691760	3.691760
O	5.537641	5.537641	3.691760
O	5.537641	3.691760	5.537641
O	3.691760	5.537641	5.537641
