112

O	4.272047	-1.050066	-1.050066
O	-1.050846	1.050066	-4.274580
O	1.050846	-1.050066	-4.274580
O	1.610600	1.612257	-1.612257
O	6.373740	1.050066	-1.050066
O	1.610600	3.712389	-3.712389
O	3.712293	3.712389	-1.612257
O	3.712293	1.612257	-3.712389
Rb	0.000000	0.000000	0.000000
Rb	2.661447	-2.662323	-2.662323
Th	-1.330723	-1.331161	-3.993484
Th	3.992170	1.331161	-1.331161
Th	6.653617	-1.331161	-1.331161
Th	1.330723	1.331161	-3.993484
O	9.594940	4.274580	-1.050066
O	4.272047	6.374712	-4.274580
O	6.373740	4.274580	-4.274580
O	6.933493	6.936903	-1.612257
O	11.696633	6.374712	-1.050066
O	6.933493	9.037035	-3.712389
O	9.035186	9.037035	-1.612257
O	9.035186	6.936903	-3.712389
Rb	5.322893	5.324646	0.000000
Rb	7.984340	2.662323	-2.662323
Th	3.992170	3.993484	-3.993484
Th	9.315063	6.655807	-1.331161
Th	11.976510	3.993484	-1.331161
Th	6.653617	6.655807	-3.993484
O	-1.050846	-1.050066	-6.374712
O	-6.373740	1.050066	-9.599226
O	-4.272047	-1.050066	-9.599226
O	-3.712293	1.612257	-6.936903
O	1.050846	1.050066	-6.374712
O	-3.712293	3.712389	-9.037035
O	-1.610600	3.712389	-6.936903
O	-1.610600	1.612257	-9.037035
Rb	-5.322893	0.000000	-5.324646
Rb	-2.661447	-2.662323	-7.986969
Th	-6.653617	-1.331161	-9.318130
Th	-1.330723	1.331161	-6.655807
Th	1.330723	-1.331161	-6.655807
Th	-3.992170	1.331161	-9.318130
O	4.272047	4.274580	-6.374712
O	-1.050846	6.374712	-9.599226
O	1.050846	4.274580	-9.599226
O	1.610600	6.936903	-6.936903
O	6.373740	6.374712	-6.374712
O	1.610600	9.037035	-9.037035
O	3.712293	9.037035	-6.936903
O	3.712293	6.936903	-9.037035
Rb	0.000000	5.324646	-5.324646
Rb	2.661447	2.662323	-7.986969
Th	-1.330723	3.993484	-9.318130
Th	3.992170	6.655807	-6.655807
Th	6.653617	3.993484	-6.655807
Th	1.330723	6.655807	-9.318130
O	9.594940	-6.374712	-1.050066
O	4.272047	-4.274580	-4.274580
O	6.373740	-6.374712	-4.274580
O	6.933493	-3.712389	-1.612257
O	11.696633	-4.274580	-1.050066
O	6.933493	-1.612257	-3.712389
O	9.035186	-1.612257	-1.612257
O	9.035186	-3.712389	-3.712389
Rb	5.322893	-5.324646	0.000000
Rb	7.984340	-7.986969	-2.662323
Th	3.992170	-6.655807	-3.993484
Th	9.315063	-3.993484	-1.331161
Th	11.976510	-6.655807	-1.331161
Th	6.653617	-3.993484	-3.993484
O	14.917833	-1.050066	-1.050066
O	9.594940	1.050066	-4.274580
O	11.696633	-1.050066	-4.274580
O	12.256387	1.612257	-1.612257
O	17.019526	1.050066	-1.050066
O	12.256387	3.712389	-3.712389
O	14.358079	3.712389	-1.612257
O	14.358079	1.612257	-3.712389
Rb	10.645786	0.000000	0.000000
Rb	13.307233	-2.662323	-2.662323
Th	9.315063	-1.331161	-3.993484
Th	14.637956	1.331161	-1.331161
Th	17.299403	-1.331161	-1.331161
Th	11.976510	1.331161	-3.993484
O	4.272047	-6.374712	-6.374712
O	-1.050846	-4.274580	-9.599226
O	1.050846	-6.374712	-9.599226
O	1.610600	-3.712389	-6.936903
O	6.373740	-4.274580	-6.374712
O	1.610600	-1.612257	-9.037035
O	3.712293	-1.612257	-6.936903
O	3.712293	-3.712389	-9.037035
Rb	0.000000	-5.324646	-5.324646
Rb	2.661447	-7.986969	-7.986969
Th	-1.330723	-6.655807	-9.318130
Th	3.992170	-3.993484	-6.655807
Th	6.653617	-6.655807	-6.655807
Th	1.330723	-3.993484	-9.318130
O	9.594940	-1.050066	-6.374712
O	4.272047	1.050066	-9.599226
O	6.373740	-1.050066	-9.599226
O	6.933493	1.612257	-6.936903
O	11.696633	1.050066	-6.374712
O	6.933493	3.712389	-9.037035
O	9.035186	3.712389	-6.936903
O	9.035186	1.612257	-9.037035
Rb	5.322893	0.000000	-5.324646
Rb	7.984340	-2.662323	-7.986969
Th	3.992170	-1.331161	-9.318130
Th	9.315063	1.331161	-6.655807
Th	11.976510	-1.331161	-6.655807
Th	6.653617	1.331161	-9.318130
