40

As	-0.000000	0.000000	11.591763
Sb	-0.000000	0.000000	17.219839
Te	-0.000000	0.000000	0.001348
Te	-0.000000	0.000000	22.817160
S	-0.000000	0.000000	6.192047
As	-1.183486	-2.049858	21.228789
Sb	-1.183486	-2.049858	26.856866
Te	-1.183486	-2.049858	9.638375
Te	-1.183486	-2.049858	32.454186
S	-1.183486	-2.049858	15.829074
As	-2.366973	-4.099717	30.865816
Sb	-2.366973	-4.099717	36.493892
Te	-2.366973	-4.099717	19.275401
Te	-2.366973	-4.099717	42.091213
S	-2.366973	-4.099717	25.466100
As	-1.183486	2.049858	21.228789
Sb	-1.183486	2.049858	26.856866
Te	-1.183486	2.049858	9.638375
Te	-1.183486	2.049858	32.454186
S	-1.183486	2.049858	15.829074
As	-2.366973	0.000000	30.865816
Sb	-2.366973	0.000000	36.493892
Te	-2.366973	0.000000	19.275401
Te	-2.366973	0.000000	42.091213
S	-2.366973	0.000000	25.466100
As	-3.550459	-2.049858	40.502842
Sb	-3.550459	-2.049858	46.130919
Te	-3.550459	-2.049858	28.912427
Te	-3.550459	-2.049858	51.728239
S	-3.550459	-2.049858	35.103127
As	-2.366973	4.099717	30.865816
Sb	-2.366973	4.099717	36.493892
Te	-2.366973	4.099717	19.275401
Te	-2.366973	4.099717	42.091213
S	-2.366973	4.099717	25.466100
As	-3.550459	2.049858	40.502842
Sb	-3.550459	2.049858	46.130919
Te	-3.550459	2.049858	28.912427
Te	-3.550459	2.049858	51.728239
S	-3.550459	2.049858	35.103127
As	-4.733945	0.000000	50.139869
Sb	-4.733945	0.000000	55.767945
Te	-4.733945	0.000000	38.549454
Te	-4.733945	0.000000	61.365265
S	-4.733945	0.000000	44.740153
As	2.366973	0.000000	21.228789
Sb	2.366973	0.000000	26.856866
Te	2.366973	0.000000	9.638375
Te	2.366973	0.000000	32.454186
S	2.366973	0.000000	15.829074
As	1.183486	-2.049858	30.865816
Sb	1.183486	-2.049858	36.493892
Te	1.183486	-2.049858	19.275401
Te	1.183486	-2.049858	42.091213
S	1.183486	-2.049858	25.466100
As	-0.000000	-4.099717	40.502842
Sb	-0.000000	-4.099717	46.130919
Te	-0.000000	-4.099717	28.912427
Te	-0.000000	-4.099717	51.728239
S	-0.000000	-4.099717	35.103127
As	1.183486	2.049858	30.865816
Sb	1.183486	2.049858	36.493892
Te	1.183486	2.049858	19.275401
Te	1.183486	2.049858	42.091213
S	1.183486	2.049858	25.466100
As	-0.000000	0.000000	40.502842
Sb	-0.000000	0.000000	46.130919
Te	-0.000000	0.000000	28.912427
Te	-0.000000	0.000000	51.728239
S	-0.000000	0.000000	35.103127
As	-1.183486	-2.049858	50.139869
Sb	-1.183486	-2.049858	55.767945
Te	-1.183486	-2.049858	38.549454
Te	-1.183486	-2.049858	61.365265
S	-1.183486	-2.049858	44.740153
As	-0.000000	4.099717	40.502842
Sb	-0.000000	4.099717	46.130919
Te	-0.000000	4.099717	28.912427
Te	-0.000000	4.099717	51.728239
S	-0.000000	4.099717	35.103127
As	-1.183486	2.049858	50.139869
Sb	-1.183486	2.049858	55.767945
Te	-1.183486	2.049858	38.549454
Te	-1.183486	2.049858	61.365265
S	-1.183486	2.049858	44.740153
As	-2.366973	0.000000	59.776895
Sb	-2.366973	0.000000	65.404971
Te	-2.366973	0.000000	48.186480
Te	-2.366973	0.000000	71.002292
S	-2.366973	0.000000	54.377179
As	4.733945	0.000000	30.865816
Sb	4.733945	0.000000	36.493892
Te	4.733945	0.000000	19.275401
Te	4.733945	0.000000	42.091213
S	4.733945	0.000000	25.466100
As	3.550459	-2.049858	40.502842
Sb	3.550459	-2.049858	46.130919
Te	3.550459	-2.049858	28.912427
Te	3.550459	-2.049858	51.728239
S	3.550459	-2.049858	35.103127
As	2.366973	-4.099717	50.139869
Sb	2.366973	-4.099717	55.767945
Te	2.366973	-4.099717	38.549454
Te	2.366973	-4.099717	61.365265
S	2.366973	-4.099717	44.740153
As	3.550459	2.049858	40.502842
Sb	3.550459	2.049858	46.130919
Te	3.550459	2.049858	28.912427
Te	3.550459	2.049858	51.728239
S	3.550459	2.049858	35.103127
As	2.366973	0.000000	50.139869
Sb	2.366973	0.000000	55.767945
Te	2.366973	0.000000	38.549454
Te	2.366973	0.000000	61.365265
S	2.366973	0.000000	44.740153
As	1.183486	-2.049858	59.776895
Sb	1.183486	-2.049858	65.404971
Te	1.183486	-2.049858	48.186480
Te	1.183486	-2.049858	71.002292
S	1.183486	-2.049858	54.377179
As	2.366973	4.099717	50.139869
Sb	2.366973	4.099717	55.767945
Te	2.366973	4.099717	38.549454
Te	2.366973	4.099717	61.365265
S	2.366973	4.099717	44.740153
As	1.183486	2.049858	59.776895
Sb	1.183486	2.049858	65.404971
Te	1.183486	2.049858	48.186480
Te	1.183486	2.049858	71.002292
S	1.183486	2.049858	54.377179
As	-0.000000	0.000000	69.413921
Sb	-0.000000	0.000000	75.041998
Te	-0.000000	0.000000	57.823506
Te	-0.000000	0.000000	80.639318
S	-0.000000	0.000000	64.014206
