40

As	-0.000000	0.000000	11.215600
Sb	-0.000000	0.000000	16.859792
Se	-0.000000	-0.000000	0.080374
Se	-0.000000	-0.000000	22.007325
S	-0.000000	-0.000000	6.024280
As	-1.127676	-1.953192	20.580162
Sb	-1.127676	-1.953192	26.224353
Se	-1.127676	-1.953192	9.444936
Se	-1.127676	-1.953192	31.371887
S	-1.127676	-1.953192	15.388842
As	-2.255351	-3.906383	29.944723
Sb	-2.255351	-3.906383	35.588915
Se	-2.255351	-3.906383	18.809498
Se	-2.255351	-3.906383	40.736449
S	-2.255351	-3.906383	24.753403
As	-1.127676	1.953192	20.580162
Sb	-1.127676	1.953192	26.224353
Se	-1.127676	1.953192	9.444936
Se	-1.127676	1.953192	31.371887
S	-1.127676	1.953192	15.388842
As	-2.255351	0.000000	29.944723
Sb	-2.255351	0.000000	35.588915
Se	-2.255351	0.000000	18.809498
Se	-2.255351	0.000000	40.736449
S	-2.255351	0.000000	24.753403
As	-3.383027	-1.953192	39.309285
Sb	-3.383027	-1.953192	44.953477
Se	-3.383027	-1.953192	28.174059
Se	-3.383027	-1.953192	50.101010
S	-3.383027	-1.953192	34.117965
As	-2.255351	3.906383	29.944723
Sb	-2.255351	3.906383	35.588915
Se	-2.255351	3.906383	18.809498
Se	-2.255351	3.906383	40.736449
S	-2.255351	3.906383	24.753403
As	-3.383027	1.953192	39.309285
Sb	-3.383027	1.953192	44.953477
Se	-3.383027	1.953192	28.174059
Se	-3.383027	1.953192	50.101010
S	-3.383027	1.953192	34.117965
As	-4.510703	0.000000	48.673847
Sb	-4.510703	0.000000	54.318039
Se	-4.510703	0.000000	37.538621
Se	-4.510703	0.000000	59.465572
S	-4.510703	0.000000	43.482527
As	2.255351	0.000000	20.580162
Sb	2.255351	0.000000	26.224353
Se	2.255351	-0.000000	9.444936
Se	2.255351	-0.000000	31.371887
S	2.255351	-0.000000	15.388842
As	1.127676	-1.953192	29.944723
Sb	1.127676	-1.953192	35.588915
Se	1.127676	-1.953192	18.809498
Se	1.127676	-1.953192	40.736449
S	1.127676	-1.953192	24.753403
As	-0.000000	-3.906383	39.309285
Sb	-0.000000	-3.906383	44.953477
Se	-0.000000	-3.906383	28.174059
Se	-0.000000	-3.906383	50.101010
S	-0.000000	-3.906383	34.117965
As	1.127676	1.953192	29.944723
Sb	1.127676	1.953192	35.588915
Se	1.127676	1.953192	18.809498
Se	1.127676	1.953192	40.736449
S	1.127676	1.953192	24.753403
As	-0.000000	0.000000	39.309285
Sb	-0.000000	0.000000	44.953477
Se	-0.000000	0.000000	28.174059
Se	-0.000000	0.000000	50.101010
S	-0.000000	0.000000	34.117965
As	-1.127676	-1.953192	48.673847
Sb	-1.127676	-1.953192	54.318039
Se	-1.127676	-1.953192	37.538621
Se	-1.127676	-1.953192	59.465572
S	-1.127676	-1.953192	43.482527
As	-0.000000	3.906383	39.309285
Sb	-0.000000	3.906383	44.953477
Se	-0.000000	3.906383	28.174059
Se	-0.000000	3.906383	50.101010
S	-0.000000	3.906383	34.117965
As	-1.127676	1.953192	48.673847
Sb	-1.127676	1.953192	54.318039
Se	-1.127676	1.953192	37.538621
Se	-1.127676	1.953192	59.465572
S	-1.127676	1.953192	43.482527
As	-2.255351	0.000000	58.038409
Sb	-2.255351	0.000000	63.682600
Se	-2.255351	0.000000	46.903183
Se	-2.255351	0.000000	68.830134
S	-2.255351	0.000000	52.847089
As	4.510703	0.000000	29.944723
Sb	4.510703	0.000000	35.588915
Se	4.510703	-0.000000	18.809498
Se	4.510703	-0.000000	40.736449
S	4.510703	-0.000000	24.753403
As	3.383027	-1.953192	39.309285
Sb	3.383027	-1.953192	44.953477
Se	3.383027	-1.953192	28.174059
Se	3.383027	-1.953192	50.101010
S	3.383027	-1.953192	34.117965
As	2.255351	-3.906383	48.673847
Sb	2.255351	-3.906383	54.318039
Se	2.255351	-3.906383	37.538621
Se	2.255351	-3.906383	59.465572
S	2.255351	-3.906383	43.482527
As	3.383027	1.953192	39.309285
Sb	3.383027	1.953192	44.953477
Se	3.383027	1.953192	28.174059
Se	3.383027	1.953192	50.101010
S	3.383027	1.953192	34.117965
As	2.255351	0.000000	48.673847
Sb	2.255351	0.000000	54.318039
Se	2.255351	0.000000	37.538621
Se	2.255351	0.000000	59.465572
S	2.255351	0.000000	43.482527
As	1.127676	-1.953192	58.038409
Sb	1.127676	-1.953192	63.682600
Se	1.127676	-1.953192	46.903183
Se	1.127676	-1.953192	68.830134
S	1.127676	-1.953192	52.847089
As	2.255351	3.906383	48.673847
Sb	2.255351	3.906383	54.318039
Se	2.255351	3.906383	37.538621
Se	2.255351	3.906383	59.465572
S	2.255351	3.906383	43.482527
As	1.127676	1.953192	58.038409
Sb	1.127676	1.953192	63.682600
Se	1.127676	1.953192	46.903183
Se	1.127676	1.953192	68.830134
S	1.127676	1.953192	52.847089
As	-0.000000	0.000000	67.402970
Sb	-0.000000	0.000000	73.047162
Se	-0.000000	0.000000	56.267745
Se	-0.000000	0.000000	78.194696
S	-0.000000	0.000000	62.211650
