40

Bi	0.000000	-0.000000	11.867879
Bi	0.000000	0.000000	18.499901
S	0.000000	0.000000	0.000000
Te	0.000000	-0.000000	6.579085
Te	0.000000	-0.000000	23.788695
Bi	-1.241336	-2.150057	21.990472
Bi	-1.241336	-2.150057	28.622494
S	-1.241336	-2.150057	10.122593
Te	-1.241336	-2.150057	16.701678
Te	-1.241336	-2.150057	33.911288
Bi	-2.482672	-4.300115	32.113065
Bi	-2.482672	-4.300115	38.745088
S	-2.482672	-4.300115	20.245187
Te	-2.482672	-4.300115	26.824272
Te	-2.482672	-4.300115	44.033881
Bi	-1.241336	2.150057	21.990472
Bi	-1.241336	2.150057	28.622494
S	-1.241336	2.150057	10.122593
Te	-1.241336	2.150057	16.701678
Te	-1.241336	2.150057	33.911288
Bi	-2.482672	0.000000	32.113065
Bi	-2.482672	0.000000	38.745088
S	-2.482672	0.000000	20.245187
Te	-2.482672	0.000000	26.824272
Te	-2.482672	0.000000	44.033881
Bi	-3.724009	-2.150057	42.235658
Bi	-3.724009	-2.150057	48.867681
S	-3.724009	-2.150057	30.367780
Te	-3.724009	-2.150057	36.946865
Te	-3.724009	-2.150057	54.156475
Bi	-2.482672	4.300115	32.113065
Bi	-2.482672	4.300115	38.745088
S	-2.482672	4.300115	20.245187
Te	-2.482672	4.300115	26.824272
Te	-2.482672	4.300115	44.033881
Bi	-3.724009	2.150057	42.235658
Bi	-3.724009	2.150057	48.867681
S	-3.724009	2.150057	30.367780
Te	-3.724009	2.150057	36.946865
Te	-3.724009	2.150057	54.156475
Bi	-4.965345	0.000000	52.358252
Bi	-4.965345	0.000000	58.990274
S	-4.965345	0.000000	40.490373
Te	-4.965345	0.000000	47.069458
Te	-4.965345	0.000000	64.279068
Bi	2.482672	-0.000000	21.990472
Bi	2.482672	0.000000	28.622494
S	2.482672	0.000000	10.122593
Te	2.482672	-0.000000	16.701678
Te	2.482672	-0.000000	33.911288
Bi	1.241336	-2.150057	32.113065
Bi	1.241336	-2.150057	38.745088
S	1.241336	-2.150057	20.245187
Te	1.241336	-2.150057	26.824272
Te	1.241336	-2.150057	44.033881
Bi	0.000000	-4.300115	42.235658
Bi	0.000000	-4.300115	48.867681
S	0.000000	-4.300115	30.367780
Te	0.000000	-4.300115	36.946865
Te	0.000000	-4.300115	54.156475
Bi	1.241336	2.150057	32.113065
Bi	1.241336	2.150057	38.745088
S	1.241336	2.150057	20.245187
Te	1.241336	2.150057	26.824272
Te	1.241336	2.150057	44.033881
Bi	0.000000	0.000000	42.235658
Bi	0.000000	0.000000	48.867681
S	0.000000	0.000000	30.367780
Te	0.000000	0.000000	36.946865
Te	0.000000	0.000000	54.156475
Bi	-1.241336	-2.150057	52.358252
Bi	-1.241336	-2.150057	58.990274
S	-1.241336	-2.150057	40.490373
Te	-1.241336	-2.150057	47.069458
Te	-1.241336	-2.150057	64.279068
Bi	0.000000	4.300115	42.235658
Bi	0.000000	4.300115	48.867681
S	0.000000	4.300115	30.367780
Te	0.000000	4.300115	36.946865
Te	0.000000	4.300115	54.156475
Bi	-1.241336	2.150057	52.358252
Bi	-1.241336	2.150057	58.990274
S	-1.241336	2.150057	40.490373
Te	-1.241336	2.150057	47.069458
Te	-1.241336	2.150057	64.279068
Bi	-2.482672	0.000000	62.480845
Bi	-2.482672	0.000000	69.112867
S	-2.482672	0.000000	50.612966
Te	-2.482672	0.000000	57.192051
Te	-2.482672	0.000000	74.401661
Bi	4.965345	-0.000000	32.113065
Bi	4.965345	0.000000	38.745088
S	4.965345	0.000000	20.245187
Te	4.965345	-0.000000	26.824272
Te	4.965345	-0.000000	44.033881
Bi	3.724009	-2.150057	42.235658
Bi	3.724009	-2.150057	48.867681
S	3.724009	-2.150057	30.367780
Te	3.724009	-2.150057	36.946865
Te	3.724009	-2.150057	54.156475
Bi	2.482673	-4.300115	52.358252
Bi	2.482673	-4.300115	58.990274
S	2.482673	-4.300115	40.490373
Te	2.482673	-4.300115	47.069458
Te	2.482673	-4.300115	64.279068
Bi	3.724009	2.150057	42.235658
Bi	3.724009	2.150057	48.867681
S	3.724009	2.150057	30.367780
Te	3.724009	2.150057	36.946865
Te	3.724009	2.150057	54.156475
Bi	2.482673	0.000000	52.358252
Bi	2.482673	0.000000	58.990274
S	2.482673	0.000000	40.490373
Te	2.482673	0.000000	47.069458
Te	2.482673	0.000000	64.279068
Bi	1.241336	-2.150057	62.480845
Bi	1.241336	-2.150057	69.112867
S	1.241336	-2.150057	50.612966
Te	1.241336	-2.150057	57.192051
Te	1.241336	-2.150057	74.401661
Bi	2.482673	4.300115	52.358252
Bi	2.482673	4.300115	58.990274
S	2.482673	4.300115	40.490373
Te	2.482673	4.300115	47.069458
Te	2.482673	4.300115	64.279068
Bi	1.241336	2.150057	62.480845
Bi	1.241336	2.150057	69.112867
S	1.241336	2.150057	50.612966
Te	1.241336	2.150057	57.192051
Te	1.241336	2.150057	74.401661
Bi	0.000000	0.000000	72.603438
Bi	0.000000	0.000000	79.235461
S	0.000000	0.000000	60.735560
Te	0.000000	0.000000	67.314645
Te	0.000000	0.000000	84.524254
