40

Bi	-0.000000	0.000000	12.250323
Bi	0.000000	0.000000	18.159719
Te	-0.000000	-0.000000	0.083013
Te	-0.000000	-0.000000	6.294192
Se	0.000000	0.000000	23.846834
Bi	-1.261679	-2.185292	22.356003
Bi	-1.261679	-2.185292	28.265399
Te	-1.261679	-2.185292	10.188693
Te	-1.261679	-2.185292	16.399872
Se	-1.261679	-2.185292	33.952514
Bi	-2.523358	-4.370584	32.461684
Bi	-2.523358	-4.370584	38.371080
Te	-2.523358	-4.370584	20.294374
Te	-2.523358	-4.370584	26.505553
Se	-2.523358	-4.370584	44.058194
Bi	-1.261679	2.185292	22.356003
Bi	-1.261679	2.185292	28.265399
Te	-1.261679	2.185292	10.188693
Te	-1.261679	2.185292	16.399872
Se	-1.261679	2.185292	33.952514
Bi	-2.523358	0.000000	32.461684
Bi	-2.523358	0.000000	38.371080
Te	-2.523358	0.000000	20.294374
Te	-2.523358	0.000000	26.505553
Se	-2.523358	0.000000	44.058194
Bi	-3.785037	-2.185292	42.567364
Bi	-3.785037	-2.185292	48.476760
Te	-3.785037	-2.185292	30.400054
Te	-3.785037	-2.185292	36.611233
Se	-3.785037	-2.185292	54.163875
Bi	-2.523358	4.370584	32.461684
Bi	-2.523358	4.370584	38.371080
Te	-2.523358	4.370584	20.294374
Te	-2.523358	4.370584	26.505553
Se	-2.523358	4.370584	44.058194
Bi	-3.785037	2.185292	42.567364
Bi	-3.785037	2.185292	48.476760
Te	-3.785037	2.185292	30.400054
Te	-3.785037	2.185292	36.611233
Se	-3.785037	2.185292	54.163875
Bi	-5.046716	0.000000	52.673044
Bi	-5.046716	0.000000	58.582440
Te	-5.046716	0.000000	40.505734
Te	-5.046716	0.000000	46.716913
Se	-5.046716	0.000000	64.269555
Bi	2.523358	0.000000	22.356003
Bi	2.523358	0.000000	28.265399
Te	2.523358	-0.000000	10.188693
Te	2.523358	-0.000000	16.399872
Se	2.523358	0.000000	33.952514
Bi	1.261679	-2.185292	32.461684
Bi	1.261679	-2.185292	38.371080
Te	1.261679	-2.185292	20.294374
Te	1.261679	-2.185292	26.505553
Se	1.261679	-2.185292	44.058194
Bi	0.000000	-4.370584	42.567364
Bi	0.000000	-4.370584	48.476760
Te	0.000000	-4.370584	30.400054
Te	0.000000	-4.370584	36.611233
Se	0.000000	-4.370584	54.163875
Bi	1.261679	2.185292	32.461684
Bi	1.261679	2.185292	38.371080
Te	1.261679	2.185292	20.294374
Te	1.261679	2.185292	26.505553
Se	1.261679	2.185292	44.058194
Bi	0.000000	0.000000	42.567364
Bi	0.000000	0.000000	48.476760
Te	0.000000	0.000000	30.400054
Te	0.000000	0.000000	36.611233
Se	0.000000	0.000000	54.163875
Bi	-1.261679	-2.185292	52.673044
Bi	-1.261679	-2.185292	58.582440
Te	-1.261679	-2.185292	40.505734
Te	-1.261679	-2.185292	46.716913
Se	-1.261679	-2.185292	64.269555
Bi	0.000000	4.370584	42.567364
Bi	0.000000	4.370584	48.476760
Te	0.000000	4.370584	30.400054
Te	0.000000	4.370584	36.611233
Se	0.000000	4.370584	54.163875
Bi	-1.261679	2.185292	52.673044
Bi	-1.261679	2.185292	58.582440
Te	-1.261679	2.185292	40.505734
Te	-1.261679	2.185292	46.716913
Se	-1.261679	2.185292	64.269555
Bi	-2.523358	0.000000	62.778724
Bi	-2.523358	0.000000	68.688120
Te	-2.523358	0.000000	50.611414
Te	-2.523358	0.000000	56.822593
Se	-2.523358	0.000000	74.375235
Bi	5.046716	0.000000	32.461684
Bi	5.046716	0.000000	38.371080
Te	5.046716	-0.000000	20.294374
Te	5.046716	-0.000000	26.505553
Se	5.046716	0.000000	44.058194
Bi	3.785037	-2.185292	42.567364
Bi	3.785037	-2.185292	48.476760
Te	3.785037	-2.185292	30.400054
Te	3.785037	-2.185292	36.611233
Se	3.785037	-2.185292	54.163875
Bi	2.523358	-4.370584	52.673044
Bi	2.523358	-4.370584	58.582440
Te	2.523358	-4.370584	40.505734
Te	2.523358	-4.370584	46.716913
Se	2.523358	-4.370584	64.269555
Bi	3.785037	2.185292	42.567364
Bi	3.785037	2.185292	48.476760
Te	3.785037	2.185292	30.400054
Te	3.785037	2.185292	36.611233
Se	3.785037	2.185292	54.163875
Bi	2.523358	0.000000	52.673044
Bi	2.523358	0.000000	58.582440
Te	2.523358	0.000000	40.505734
Te	2.523358	0.000000	46.716913
Se	2.523358	0.000000	64.269555
Bi	1.261679	-2.185292	62.778724
Bi	1.261679	-2.185292	68.688120
Te	1.261679	-2.185292	50.611414
Te	1.261679	-2.185292	56.822593
Se	1.261679	-2.185292	74.375235
Bi	2.523358	4.370584	52.673044
Bi	2.523358	4.370584	58.582440
Te	2.523358	4.370584	40.505734
Te	2.523358	4.370584	46.716913
Se	2.523358	4.370584	64.269555
Bi	1.261679	2.185292	62.778724
Bi	1.261679	2.185292	68.688120
Te	1.261679	2.185292	50.611414
Te	1.261679	2.185292	56.822593
Se	1.261679	2.185292	74.375235
Bi	0.000000	0.000000	72.884405
Bi	0.000000	0.000000	78.793801
Te	0.000000	0.000000	60.717095
Te	0.000000	0.000000	66.928274
Se	0.000000	0.000000	84.480915
