40

Sb	1.090621	0.629670	7.117324
Bi	3.271864	1.889011	3.096046
Te	-1.090621	-0.629671	5.155128
Te	1.090621	0.629670	1.321256
Te	3.271863	1.889011	8.803617
Sb	-1.090622	-0.629671	17.314672
Bi	1.090621	0.629670	13.293393
Te	-3.271864	-1.889012	15.352476
Te	-1.090622	-0.629671	11.518603
Te	1.090621	0.629670	19.000965
Sb	-3.271864	-1.889012	27.512020
Bi	-1.090622	-0.629671	23.490741
Te	-5.453107	-3.148353	25.549824
Te	-3.271864	-1.889012	21.715951
Te	-1.090622	-0.629671	29.198313
Sb	3.271863	4.407693	7.117324
Bi	5.453106	5.667034	3.096046
Te	1.090621	3.148352	5.155128
Te	3.271864	4.407693	1.321256
Te	5.453106	5.667034	8.803617
Sb	1.090621	3.148352	17.314672
Bi	3.271863	4.407693	13.293393
Te	-1.090622	1.889011	15.352476
Te	1.090621	3.148352	11.518603
Te	3.271863	4.407693	19.000965
Sb	-1.090622	1.889011	27.512020
Bi	1.090621	3.148352	23.490741
Te	-3.271864	0.629670	25.549824
Te	-1.090622	1.889011	21.715951
Te	1.090621	3.148352	29.198313
Sb	5.453106	8.185716	7.117324
Bi	7.634349	9.445057	3.096046
Te	3.271864	6.926375	5.155128
Te	5.453106	8.185716	1.321256
Te	7.634348	9.445057	8.803617
Sb	3.271863	6.926375	17.314672
Bi	5.453106	8.185716	13.293393
Te	1.090621	5.667034	15.352476
Te	3.271863	6.926375	11.518603
Te	5.453106	8.185716	19.000965
Sb	1.090621	5.667034	27.512020
Bi	3.271863	6.926375	23.490741
Te	-1.090622	4.407693	25.549824
Te	1.090621	5.667034	21.715951
Te	3.271863	6.926375	29.198313
Sb	5.453106	0.629670	7.117324
Bi	7.634349	1.889011	3.096046
Te	3.271864	-0.629671	5.155128
Te	5.453106	0.629670	1.321256
Te	7.634348	1.889011	8.803617
Sb	3.271863	-0.629671	17.314672
Bi	5.453106	0.629670	13.293393
Te	1.090621	-1.889012	15.352476
Te	3.271863	-0.629671	11.518603
Te	5.453106	0.629670	19.000965
Sb	1.090621	-1.889012	27.512020
Bi	3.271863	-0.629671	23.490741
Te	-1.090622	-3.148353	25.549824
Te	1.090621	-1.889012	21.715951
Te	3.271863	-0.629671	29.198313
Sb	7.634348	4.407693	7.117324
Bi	9.815591	5.667034	3.096046
Te	5.453106	3.148352	5.155128
Te	7.634349	4.407693	1.321256
Te	9.815591	5.667034	8.803617
Sb	5.453106	3.148352	17.314672
Bi	7.634348	4.407693	13.293393
Te	3.271863	1.889011	15.352476
Te	5.453106	3.148352	11.518603
Te	7.634348	4.407693	19.000965
Sb	3.271863	1.889011	27.512020
Bi	5.453106	3.148352	23.490741
Te	1.090621	0.629670	25.549824
Te	3.271863	1.889011	21.715951
Te	5.453105	3.148352	29.198313
Sb	9.815591	8.185716	7.117324
Bi	11.996834	9.445057	3.096046
Te	7.634349	6.926375	5.155128
Te	9.815591	8.185716	1.321256
Te	11.996833	9.445057	8.803617
Sb	7.634348	6.926375	17.314672
Bi	9.815591	8.185716	13.293393
Te	5.453106	5.667034	15.352476
Te	7.634348	6.926375	11.518603
Te	9.815591	8.185716	19.000965
Sb	5.453105	5.667034	27.512020
Bi	7.634348	6.926375	23.490741
Te	3.271863	4.407693	25.549824
Te	5.453106	5.667034	21.715951
Te	7.634348	6.926375	29.198313
Sb	9.815591	0.629670	7.117324
Bi	11.996834	1.889011	3.096046
Te	7.634349	-0.629671	5.155128
Te	9.815591	0.629670	1.321256
Te	11.996833	1.889011	8.803617
Sb	7.634348	-0.629671	17.314672
Bi	9.815591	0.629670	13.293393
Te	5.453106	-1.889012	15.352476
Te	7.634348	-0.629671	11.518603
Te	9.815591	0.629670	19.000965
Sb	5.453105	-1.889012	27.512020
Bi	7.634348	-0.629671	23.490741
Te	3.271863	-3.148353	25.549824
Te	5.453106	-1.889012	21.715951
Te	7.634348	-0.629671	29.198313
Sb	11.996833	4.407693	7.117324
Bi	14.178076	5.667034	3.096046
Te	9.815591	3.148352	5.155128
Te	11.996834	4.407693	1.321256
Te	14.178076	5.667034	8.803617
Sb	9.815591	3.148352	17.314672
Bi	11.996833	4.407693	13.293393
Te	7.634348	1.889011	15.352476
Te	9.815591	3.148352	11.518603
Te	11.996833	4.407693	19.000965
Sb	7.634348	1.889011	27.512020
Bi	9.815591	3.148352	23.490741
Te	5.453106	0.629670	25.549824
Te	7.634348	1.889011	21.715951
Te	9.815590	3.148352	29.198313
Sb	14.178076	8.185716	7.117324
Bi	16.359318	9.445057	3.096046
Te	11.996833	6.926375	5.155128
Te	14.178076	8.185716	1.321256
Te	16.359318	9.445057	8.803617
Sb	11.996833	6.926375	17.314672
Bi	14.178076	8.185716	13.293393
Te	9.815591	5.667034	15.352476
Te	11.996833	6.926375	11.518603
Te	14.178076	8.185716	19.000965
Sb	9.815590	5.667034	27.512020
Bi	11.996833	6.926375	23.490741
Te	7.634348	4.407693	25.549824
Te	9.815591	5.667034	21.715951
Te	11.996833	6.926375	29.198313
