40

As	-0.000000	-0.000000	11.219696
Sb	-0.000000	-0.000000	17.211769
S	-0.000000	-0.000000	0.227585
S	-0.000000	-0.000000	21.874976
Te	-0.000000	-0.000000	5.924921
As	-1.136093	-1.967771	20.629520
Sb	-1.136093	-1.967771	26.621594
S	-1.136093	-1.967771	9.637409
S	-1.136093	-1.967771	31.284801
Te	-1.136093	-1.967771	15.334746
As	-2.272186	-3.935541	30.039345
Sb	-2.272186	-3.935541	36.031418
S	-2.272186	-3.935541	19.047234
S	-2.272186	-3.935541	40.694625
Te	-2.272186	-3.935541	24.744570
As	-1.136093	1.967771	20.629520
Sb	-1.136093	1.967771	26.621594
S	-1.136093	1.967771	9.637409
S	-1.136093	1.967771	31.284801
Te	-1.136093	1.967771	15.334746
As	-2.272186	0.000000	30.039345
Sb	-2.272186	-0.000000	36.031418
S	-2.272186	0.000000	19.047234
S	-2.272186	0.000000	40.694625
Te	-2.272186	0.000000	24.744570
As	-3.408279	-1.967771	39.449169
Sb	-3.408279	-1.967771	45.441243
S	-3.408279	-1.967771	28.457058
S	-3.408279	-1.967771	50.104450
Te	-3.408279	-1.967771	34.154395
As	-2.272186	3.935541	30.039345
Sb	-2.272186	3.935541	36.031418
S	-2.272186	3.935541	19.047234
S	-2.272186	3.935541	40.694625
Te	-2.272186	3.935541	24.744570
As	-3.408279	1.967771	39.449169
Sb	-3.408279	1.967771	45.441243
S	-3.408279	1.967771	28.457058
S	-3.408279	1.967771	50.104450
Te	-3.408279	1.967771	34.154395
As	-4.544371	0.000000	48.858994
Sb	-4.544371	0.000000	54.851068
S	-4.544371	0.000000	37.866883
S	-4.544371	0.000000	59.514274
Te	-4.544371	0.000000	43.564219
As	2.272186	-0.000000	20.629520
Sb	2.272186	-0.000000	26.621594
S	2.272186	-0.000000	9.637409
S	2.272186	-0.000000	31.284801
Te	2.272186	-0.000000	15.334746
As	1.136093	-1.967771	30.039345
Sb	1.136093	-1.967771	36.031418
S	1.136093	-1.967771	19.047234
S	1.136093	-1.967771	40.694625
Te	1.136093	-1.967771	24.744570
As	-0.000000	-3.935541	39.449169
Sb	-0.000000	-3.935541	45.441243
S	-0.000000	-3.935541	28.457058
S	-0.000000	-3.935541	50.104450
Te	-0.000000	-3.935541	34.154395
As	1.136093	1.967771	30.039345
Sb	1.136093	1.967771	36.031418
S	1.136093	1.967771	19.047234
S	1.136093	1.967771	40.694625
Te	1.136093	1.967771	24.744570
As	-0.000000	0.000000	39.449169
Sb	-0.000000	-0.000000	45.441243
S	-0.000000	0.000000	28.457058
S	-0.000000	0.000000	50.104450
Te	-0.000000	0.000000	34.154395
As	-1.136093	-1.967771	48.858994
Sb	-1.136093	-1.967771	54.851068
S	-1.136093	-1.967771	37.866883
S	-1.136093	-1.967771	59.514274
Te	-1.136093	-1.967771	43.564219
As	-0.000000	3.935541	39.449169
Sb	-0.000000	3.935541	45.441243
S	-0.000000	3.935541	28.457058
S	-0.000000	3.935541	50.104450
Te	-0.000000	3.935541	34.154395
As	-1.136093	1.967771	48.858994
Sb	-1.136093	1.967771	54.851068
S	-1.136093	1.967771	37.866883
S	-1.136093	1.967771	59.514274
Te	-1.136093	1.967771	43.564219
As	-2.272186	0.000000	58.268818
Sb	-2.272186	0.000000	64.260892
S	-2.272186	0.000000	47.276707
S	-2.272186	0.000000	68.924099
Te	-2.272186	0.000000	52.974044
As	4.544371	-0.000000	30.039345
Sb	4.544371	-0.000000	36.031418
S	4.544371	-0.000000	19.047234
S	4.544371	-0.000000	40.694625
Te	4.544371	-0.000000	24.744570
As	3.408278	-1.967771	39.449169
Sb	3.408278	-1.967771	45.441243
S	3.408278	-1.967771	28.457058
S	3.408278	-1.967771	50.104450
Te	3.408278	-1.967771	34.154395
As	2.272186	-3.935541	48.858994
Sb	2.272186	-3.935541	54.851068
S	2.272186	-3.935541	37.866883
S	2.272186	-3.935541	59.514274
Te	2.272186	-3.935541	43.564219
As	3.408278	1.967771	39.449169
Sb	3.408278	1.967771	45.441243
S	3.408278	1.967771	28.457058
S	3.408278	1.967771	50.104450
Te	3.408278	1.967771	34.154395
As	2.272186	0.000000	48.858994
Sb	2.272186	-0.000000	54.851068
S	2.272186	0.000000	37.866883
S	2.272186	0.000000	59.514274
Te	2.272186	0.000000	43.564219
As	1.136093	-1.967771	58.268818
Sb	1.136093	-1.967771	64.260892
S	1.136093	-1.967771	47.276707
S	1.136093	-1.967771	68.924099
Te	1.136093	-1.967771	52.974044
As	2.272186	3.935541	48.858994
Sb	2.272186	3.935541	54.851068
S	2.272186	3.935541	37.866883
S	2.272186	3.935541	59.514274
Te	2.272186	3.935541	43.564219
As	1.136093	1.967771	58.268818
Sb	1.136093	1.967771	64.260892
S	1.136093	1.967771	47.276707
S	1.136093	1.967771	68.924099
Te	1.136093	1.967771	52.974044
As	-0.000000	0.000000	67.678643
Sb	-0.000000	0.000000	73.670717
S	-0.000000	0.000000	56.686532
S	-0.000000	0.000000	78.333923
Te	-0.000000	0.000000	62.383868
