40

As	1.027632	0.593304	6.841769
Sb	3.082898	1.779912	2.911186
Te	-1.027633	-0.593304	5.054762
Te	1.027633	0.593304	1.104065
Se	3.082898	1.779912	8.185693
As	-1.027633	-0.593304	16.480759
Sb	1.027632	0.593304	12.550176
Te	-3.082899	-1.779912	14.693752
Te	-1.027633	-0.593304	10.743055
Se	1.027632	0.593304	17.824683
As	-3.082899	-1.779913	26.119748
Sb	-1.027634	-0.593305	22.189166
Te	-5.138164	-2.966521	24.332742
Te	-3.082899	-1.779913	20.382045
Se	-1.027634	-0.593305	27.463672
As	3.082898	4.153128	6.841769
Sb	5.138163	5.339736	2.911186
Te	1.027633	2.966520	5.054762
Te	3.082898	4.153128	1.104065
Se	5.138163	5.339736	8.185693
As	1.027632	2.966520	16.480759
Sb	3.082898	4.153128	12.550176
Te	-1.027633	1.779912	14.693752
Te	1.027632	2.966520	10.743055
Se	3.082897	4.153128	17.824683
As	-1.027634	1.779911	26.119748
Sb	1.027632	2.966520	22.189166
Te	-3.082899	0.593303	24.332742
Te	-1.027634	1.779912	20.382045
Se	1.027632	2.966519	27.463672
As	5.138163	7.712952	6.841769
Sb	7.193429	8.899560	2.911186
Te	3.082898	6.526344	5.054762
Te	5.138164	7.712952	1.104065
Se	7.193429	8.899560	8.185693
As	3.082898	6.526344	16.480759
Sb	5.138163	7.712952	12.550176
Te	1.027632	5.339736	14.693752
Te	3.082898	6.526344	10.743055
Se	5.138163	7.712952	17.824683
As	1.027632	5.339736	26.119748
Sb	3.082897	6.526344	22.189166
Te	-1.027634	4.153128	24.332742
Te	1.027632	5.339736	20.382045
Se	3.082897	6.526344	27.463672
As	5.138163	0.593304	6.841769
Sb	7.193429	1.779912	2.911186
Te	3.082898	-0.593304	5.054762
Te	5.138164	0.593304	1.104065
Se	7.193429	1.779912	8.185693
As	3.082898	-0.593304	16.480759
Sb	5.138163	0.593304	12.550176
Te	1.027632	-1.779912	14.693752
Te	3.082898	-0.593304	10.743055
Se	5.138163	0.593304	17.824683
As	1.027632	-1.779913	26.119748
Sb	3.082897	-0.593305	22.189166
Te	-1.027634	-2.966521	24.332742
Te	1.027632	-1.779913	20.382045
Se	3.082897	-0.593305	27.463672
As	7.193429	4.153128	6.841769
Sb	9.248694	5.339736	2.911186
Te	5.138163	2.966520	5.054762
Te	7.193429	4.153128	1.104065
Se	9.248694	5.339736	8.185693
As	5.138163	2.966520	16.480759
Sb	7.193428	4.153128	12.550176
Te	3.082898	1.779912	14.693752
Te	5.138163	2.966520	10.743055
Se	7.193428	4.153128	17.824683
As	3.082897	1.779911	26.119748
Sb	5.138163	2.966520	22.189166
Te	1.027632	0.593303	24.332742
Te	3.082897	1.779912	20.382045
Se	5.138162	2.966519	27.463672
As	9.248694	7.712952	6.841769
Sb	11.303960	8.899560	2.911186
Te	7.193429	6.526344	5.054762
Te	9.248694	7.712952	1.104065
Se	11.303960	8.899560	8.185693
As	7.193428	6.526344	16.480759
Sb	9.248694	7.712952	12.550176
Te	5.138163	5.339736	14.693752
Te	7.193429	6.526344	10.743055
Se	9.248694	7.712952	17.824683
As	5.138163	5.339736	26.119748
Sb	7.193428	6.526344	22.189166
Te	3.082897	4.153128	24.332742
Te	5.138163	5.339736	20.382045
Se	7.193428	6.526344	27.463672
As	9.248694	0.593304	6.841769
Sb	11.303960	1.779912	2.911186
Te	7.193429	-0.593304	5.054762
Te	9.248694	0.593304	1.104065
Se	11.303960	1.779912	8.185693
As	7.193428	-0.593304	16.480759
Sb	9.248694	0.593304	12.550176
Te	5.138163	-1.779912	14.693752
Te	7.193429	-0.593304	10.743055
Se	9.248694	0.593304	17.824683
As	5.138163	-1.779913	26.119748
Sb	7.193428	-0.593305	22.189166
Te	3.082897	-2.966521	24.332742
Te	5.138163	-1.779913	20.382045
Se	7.193428	-0.593305	27.463672
As	11.303960	4.153128	6.841769
Sb	13.359225	5.339736	2.911186
Te	9.248694	2.966520	5.054762
Te	11.303960	4.153128	1.104065
Se	13.359225	5.339736	8.185693
As	9.248694	2.966520	16.480759
Sb	11.303959	4.153128	12.550176
Te	7.193428	1.779912	14.693752
Te	9.248694	2.966520	10.743055
Se	11.303959	4.153128	17.824683
As	7.193428	1.779911	26.119748
Sb	9.248694	2.966520	22.189166
Te	5.138163	0.593303	24.332742
Te	7.193428	1.779912	20.382045
Se	9.248693	2.966519	27.463672
As	13.359225	7.712952	6.841769
Sb	15.414491	8.899560	2.911186
Te	11.303960	6.526344	5.054762
Te	13.359225	7.712952	1.104065
Se	15.414490	8.899560	8.185693
As	11.303959	6.526344	16.480759
Sb	13.359225	7.712952	12.550176
Te	9.248694	5.339736	14.693752
Te	11.303959	6.526344	10.743055
Se	13.359225	7.712952	17.824683
As	9.248693	5.339736	26.119748
Sb	11.303959	6.526344	22.189166
Te	7.193428	4.153128	24.332742
Te	9.248694	5.339736	20.382045
Se	11.303959	6.526344	27.463672
