40

Sb	1.039038	0.599889	6.898261
Bi	3.117114	1.799667	2.664608
Te	-1.039038	-0.599889	4.819446
S	1.039038	0.599889	1.269208
Se	3.117114	1.799667	8.394249
Sb	-1.039038	-0.599889	16.516571
Bi	1.039038	0.599889	12.282918
Te	-3.117114	-1.799667	14.437756
S	-1.039038	-0.599889	10.887518
Se	1.039038	0.599889	18.012559
Sb	-3.117114	-1.799666	26.134880
Bi	-1.039038	-0.599889	21.901227
Te	-5.195190	-2.999444	24.056065
S	-3.117114	-1.799667	20.505827
Se	-1.039038	-0.599889	27.630868
Sb	3.117115	4.199222	6.898261
Bi	5.195191	5.399000	2.664608
Te	1.039038	2.999444	4.819446
S	3.117114	4.199222	1.269208
Se	5.195191	5.399000	8.394249
Sb	1.039039	2.999445	16.516571
Bi	3.117115	4.199222	12.282918
Te	-1.039038	1.799667	14.437756
S	1.039038	2.999444	10.887518
Se	3.117115	4.199222	18.012559
Sb	-1.039038	1.799667	26.134880
Bi	1.039038	2.999445	21.901227
Te	-3.117114	0.599889	24.056065
S	-1.039038	1.799667	20.505827
Se	1.039039	2.999445	27.630868
Sb	5.195191	7.798556	6.898261
Bi	7.273267	8.998333	2.664608
Te	3.117115	6.598778	4.819446
S	5.195191	7.798555	1.269208
Se	7.273267	8.998333	8.394249
Sb	3.117115	6.598778	16.516571
Bi	5.195191	7.798556	12.282918
Te	1.039039	5.399000	14.437756
S	3.117115	6.598778	10.887518
Se	5.195191	7.798556	18.012559
Sb	1.039039	5.399000	26.134880
Bi	3.117115	6.598778	21.901227
Te	-1.039038	4.199222	24.056065
S	1.039039	5.399000	20.505827
Se	3.117115	6.598778	27.630868
Sb	5.195191	0.599889	6.898261
Bi	7.273267	1.799667	2.664608
Te	3.117114	-0.599889	4.819446
S	5.195190	0.599889	1.269208
Se	7.273267	1.799667	8.394249
Sb	3.117114	-0.599889	16.516571
Bi	5.195190	0.599889	12.282918
Te	1.039038	-1.799667	14.437756
S	3.117114	-0.599889	10.887518
Se	5.195191	0.599889	18.012559
Sb	1.039038	-1.799666	26.134880
Bi	3.117114	-0.599889	21.901227
Te	-1.039038	-2.999444	24.056065
S	1.039038	-1.799667	20.505827
Se	3.117114	-0.599889	27.630868
Sb	7.273267	4.199222	6.898261
Bi	9.351343	5.399000	2.664608
Te	5.195191	2.999444	4.819446
S	7.273267	4.199222	1.269208
Se	9.351343	5.399000	8.394249
Sb	5.195191	2.999445	16.516571
Bi	7.273267	4.199222	12.282918
Te	3.117114	1.799667	14.437756
S	5.195191	2.999444	10.887518
Se	7.273267	4.199222	18.012559
Sb	3.117115	1.799667	26.134880
Bi	5.195191	2.999445	21.901227
Te	1.039038	0.599889	24.056065
S	3.117115	1.799667	20.505827
Se	5.195191	2.999445	27.630868
Sb	9.351343	7.798556	6.898261
Bi	11.429419	8.998333	2.664608
Te	7.273267	6.598778	4.819446
S	9.351343	7.798555	1.269208
Se	11.429419	8.998333	8.394249
Sb	7.273267	6.598778	16.516571
Bi	9.351343	7.798556	12.282918
Te	5.195191	5.399000	14.437756
S	7.273267	6.598778	10.887518
Se	9.351343	7.798556	18.012559
Sb	5.195191	5.399000	26.134880
Bi	7.273267	6.598778	21.901227
Te	3.117115	4.199222	24.056065
S	5.195191	5.399000	20.505827
Se	7.273267	6.598778	27.630868
Sb	9.351343	0.599889	6.898261
Bi	11.429419	1.799667	2.664608
Te	7.273266	-0.599889	4.819446
S	9.351343	0.599889	1.269208
Se	11.429419	1.799667	8.394249
Sb	7.273267	-0.599889	16.516571
Bi	9.351343	0.599889	12.282918
Te	5.195190	-1.799667	14.437756
S	7.273267	-0.599889	10.887518
Se	9.351343	0.599889	18.012559
Sb	5.195191	-1.799666	26.134880
Bi	7.273267	-0.599889	21.901227
Te	3.117114	-2.999444	24.056065
S	5.195190	-1.799667	20.505827
Se	7.273267	-0.599889	27.630868
Sb	11.429419	4.199222	6.898261
Bi	13.507495	5.399000	2.664608
Te	9.351343	2.999444	4.819446
S	11.429419	4.199222	1.269208
Se	13.507495	5.399000	8.394249
Sb	9.351343	2.999445	16.516571
Bi	11.429419	4.199222	12.282918
Te	7.273267	1.799667	14.437756
S	9.351343	2.999444	10.887518
Se	11.429419	4.199222	18.012559
Sb	7.273267	1.799667	26.134880
Bi	9.351343	2.999445	21.901227
Te	5.195191	0.599889	24.056065
S	7.273267	1.799667	20.505827
Se	9.351343	2.999445	27.630868
Sb	13.507495	7.798556	6.898261
Bi	15.585572	8.998333	2.664608
Te	11.429419	6.598778	4.819446
S	13.507495	7.798555	1.269208
Se	15.585572	8.998333	8.394249
Sb	11.429419	6.598778	16.516571
Bi	13.507495	7.798556	12.282918
Te	9.351343	5.399000	14.437756
S	11.429419	6.598778	10.887518
Se	13.507495	7.798556	18.012559
Sb	9.351343	5.399000	26.134880
Bi	11.429419	6.598778	21.901227
Te	7.273267	4.199222	24.056065
S	9.351343	5.399000	20.505827
Se	11.429419	6.598778	27.630868
