40

Sb	-0.000000	-0.000000	11.454089
Sb	-0.000000	-0.000000	17.114373
Se	-0.000000	-0.000000	0.050213
Se	-0.000000	0.000000	6.034814
S	-0.000000	0.000000	22.348637
Sb	-1.164503	-2.016978	20.954443
Sb	-1.164503	-2.016978	26.614727
Se	-1.164503	-2.016978	9.550567
Se	-1.164503	-2.016978	15.535168
S	-1.164503	-2.016978	31.848992
Sb	-2.329006	-4.033956	30.454798
Sb	-2.329006	-4.033956	36.115081
Se	-2.329006	-4.033956	19.050921
Se	-2.329006	-4.033956	25.035522
S	-2.329006	-4.033956	41.349346
Sb	-1.164503	2.016978	20.954443
Sb	-1.164503	2.016978	26.614727
Se	-1.164503	2.016978	9.550567
Se	-1.164503	2.016978	15.535168
S	-1.164503	2.016978	31.848992
Sb	-2.329006	0.000000	30.454798
Sb	-2.329006	0.000000	36.115081
Se	-2.329006	0.000000	19.050921
Se	-2.329006	0.000000	25.035522
S	-2.329006	0.000000	41.349346
Sb	-3.493509	-2.016978	39.955152
Sb	-3.493509	-2.016978	45.615435
Se	-3.493509	-2.016978	28.551275
Se	-3.493509	-2.016978	34.535876
S	-3.493509	-2.016978	50.849700
Sb	-2.329006	4.033956	30.454798
Sb	-2.329006	4.033956	36.115081
Se	-2.329006	4.033956	19.050921
Se	-2.329006	4.033956	25.035522
S	-2.329006	4.033956	41.349346
Sb	-3.493509	2.016978	39.955152
Sb	-3.493509	2.016978	45.615435
Se	-3.493509	2.016978	28.551275
Se	-3.493509	2.016978	34.535876
S	-3.493509	2.016978	50.849700
Sb	-4.658012	0.000000	49.455506
Sb	-4.658012	0.000000	55.115789
Se	-4.658012	0.000000	38.051630
Se	-4.658012	0.000000	44.036231
S	-4.658012	0.000000	60.350054
Sb	2.329006	-0.000000	20.954443
Sb	2.329006	-0.000000	26.614727
Se	2.329006	-0.000000	9.550567
Se	2.329006	0.000000	15.535168
S	2.329006	0.000000	31.848992
Sb	1.164503	-2.016978	30.454798
Sb	1.164503	-2.016978	36.115081
Se	1.164503	-2.016978	19.050921
Se	1.164503	-2.016978	25.035522
S	1.164503	-2.016978	41.349346
Sb	0.000000	-4.033956	39.955152
Sb	0.000000	-4.033956	45.615435
Se	0.000000	-4.033956	28.551275
Se	0.000000	-4.033956	34.535876
S	0.000000	-4.033956	50.849700
Sb	1.164503	2.016978	30.454798
Sb	1.164503	2.016978	36.115081
Se	1.164503	2.016978	19.050921
Se	1.164503	2.016978	25.035522
S	1.164503	2.016978	41.349346
Sb	0.000000	0.000000	39.955152
Sb	0.000000	0.000000	45.615435
Se	0.000000	0.000000	28.551275
Se	0.000000	0.000000	34.535876
S	0.000000	0.000000	50.849700
Sb	-1.164503	-2.016978	49.455506
Sb	-1.164503	-2.016978	55.115789
Se	-1.164503	-2.016978	38.051630
Se	-1.164503	-2.016978	44.036231
S	-1.164503	-2.016978	60.350054
Sb	0.000000	4.033956	39.955152
Sb	0.000000	4.033956	45.615435
Se	0.000000	4.033956	28.551275
Se	0.000000	4.033956	34.535876
S	0.000000	4.033956	50.849700
Sb	-1.164503	2.016978	49.455506
Sb	-1.164503	2.016978	55.115789
Se	-1.164503	2.016978	38.051630
Se	-1.164503	2.016978	44.036231
S	-1.164503	2.016978	60.350054
Sb	-2.329006	0.000000	58.955860
Sb	-2.329006	0.000000	64.616144
Se	-2.329006	0.000000	47.551984
Se	-2.329006	0.000000	53.536585
S	-2.329006	0.000000	69.850409
Sb	4.658012	-0.000000	30.454798
Sb	4.658012	-0.000000	36.115081
Se	4.658012	-0.000000	19.050921
Se	4.658012	0.000000	25.035522
S	4.658012	0.000000	41.349346
Sb	3.493509	-2.016978	39.955152
Sb	3.493509	-2.016978	45.615435
Se	3.493509	-2.016978	28.551275
Se	3.493509	-2.016978	34.535876
S	3.493509	-2.016978	50.849700
Sb	2.329006	-4.033956	49.455506
Sb	2.329006	-4.033956	55.115789
Se	2.329006	-4.033956	38.051630
Se	2.329006	-4.033956	44.036231
S	2.329006	-4.033956	60.350054
Sb	3.493509	2.016978	39.955152
Sb	3.493509	2.016978	45.615435
Se	3.493509	2.016978	28.551275
Se	3.493509	2.016978	34.535876
S	3.493509	2.016978	50.849700
Sb	2.329006	0.000000	49.455506
Sb	2.329006	0.000000	55.115789
Se	2.329006	0.000000	38.051630
Se	2.329006	0.000000	44.036231
S	2.329006	0.000000	60.350054
Sb	1.164503	-2.016978	58.955860
Sb	1.164503	-2.016978	64.616144
Se	1.164503	-2.016978	47.551984
Se	1.164503	-2.016978	53.536585
S	1.164503	-2.016978	69.850409
Sb	2.329006	4.033956	49.455506
Sb	2.329006	4.033956	55.115789
Se	2.329006	4.033956	38.051630
Se	2.329006	4.033956	44.036231
S	2.329006	4.033956	60.350054
Sb	1.164503	2.016978	58.955860
Sb	1.164503	2.016978	64.616144
Se	1.164503	2.016978	47.551984
Se	1.164503	2.016978	53.536585
S	1.164503	2.016978	69.850409
Sb	0.000000	0.000000	68.456215
Sb	0.000000	0.000000	74.116498
Se	0.000000	0.000000	57.052338
Se	0.000000	0.000000	63.036939
S	0.000000	0.000000	79.350763
