40

Sb	0.000000	0.000000	11.268578
Sb	-0.000000	-0.000000	17.206631
S	0.000000	0.000000	0.000000
Se	-0.000000	0.000000	6.132192
Se	0.000000	0.000000	22.343017
Sb	-1.163755	-2.015684	20.760315
Sb	-1.163755	-2.015684	26.698368
S	-1.163755	-2.015684	9.491736
Se	-1.163755	-2.015684	15.623929
Se	-1.163755	-2.015684	31.834753
Sb	-2.327511	-4.031367	30.252051
Sb	-2.327511	-4.031367	36.190104
S	-2.327511	-4.031367	18.983473
Se	-2.327511	-4.031367	25.115665
Se	-2.327511	-4.031367	41.326490
Sb	-1.163755	2.015684	20.760315
Sb	-1.163755	2.015684	26.698368
S	-1.163755	2.015684	9.491736
Se	-1.163755	2.015684	15.623929
Se	-1.163755	2.015684	31.834753
Sb	-2.327511	0.000000	30.252051
Sb	-2.327511	0.000000	36.190104
S	-2.327511	0.000000	18.983473
Se	-2.327511	0.000000	25.115665
Se	-2.327511	0.000000	41.326490
Sb	-3.491266	-2.015684	39.743788
Sb	-3.491266	-2.015684	45.681841
S	-3.491266	-2.015684	28.475209
Se	-3.491266	-2.015684	34.607402
Se	-3.491266	-2.015684	50.818226
Sb	-2.327511	4.031367	30.252051
Sb	-2.327511	4.031367	36.190104
S	-2.327511	4.031367	18.983473
Se	-2.327511	4.031367	25.115665
Se	-2.327511	4.031367	41.326490
Sb	-3.491266	2.015684	39.743788
Sb	-3.491266	2.015684	45.681841
S	-3.491266	2.015684	28.475209
Se	-3.491266	2.015684	34.607402
Se	-3.491266	2.015684	50.818226
Sb	-4.655022	0.000000	49.235524
Sb	-4.655022	0.000000	55.173577
S	-4.655022	0.000000	37.966946
Se	-4.655022	0.000000	44.099138
Se	-4.655022	0.000000	60.309963
Sb	2.327511	0.000000	20.760315
Sb	2.327511	-0.000000	26.698368
S	2.327511	0.000000	9.491736
Se	2.327511	0.000000	15.623929
Se	2.327511	0.000000	31.834753
Sb	1.163755	-2.015684	30.252051
Sb	1.163755	-2.015684	36.190104
S	1.163755	-2.015684	18.983473
Se	1.163755	-2.015684	25.115665
Se	1.163755	-2.015684	41.326490
Sb	0.000000	-4.031367	39.743788
Sb	0.000000	-4.031367	45.681841
S	0.000000	-4.031367	28.475209
Se	0.000000	-4.031367	34.607402
Se	0.000000	-4.031367	50.818226
Sb	1.163755	2.015684	30.252051
Sb	1.163755	2.015684	36.190104
S	1.163755	2.015684	18.983473
Se	1.163755	2.015684	25.115665
Se	1.163755	2.015684	41.326490
Sb	0.000000	0.000000	39.743788
Sb	0.000000	0.000000	45.681841
S	0.000000	0.000000	28.475209
Se	0.000000	0.000000	34.607402
Se	0.000000	0.000000	50.818226
Sb	-1.163755	-2.015684	49.235524
Sb	-1.163755	-2.015684	55.173577
S	-1.163755	-2.015684	37.966946
Se	-1.163755	-2.015684	44.099138
Se	-1.163755	-2.015684	60.309963
Sb	0.000000	4.031367	39.743788
Sb	0.000000	4.031367	45.681841
S	0.000000	4.031367	28.475209
Se	0.000000	4.031367	34.607402
Se	0.000000	4.031367	50.818226
Sb	-1.163755	2.015684	49.235524
Sb	-1.163755	2.015684	55.173577
S	-1.163755	2.015684	37.966946
Se	-1.163755	2.015684	44.099138
Se	-1.163755	2.015684	60.309963
Sb	-2.327511	0.000000	58.727260
Sb	-2.327511	0.000000	64.665314
S	-2.327511	0.000000	47.458682
Se	-2.327511	0.000000	53.590875
Se	-2.327511	0.000000	69.801699
Sb	4.655022	0.000000	30.252051
Sb	4.655022	-0.000000	36.190104
S	4.655022	0.000000	18.983473
Se	4.655022	0.000000	25.115665
Se	4.655022	0.000000	41.326490
Sb	3.491266	-2.015684	39.743788
Sb	3.491266	-2.015684	45.681841
S	3.491266	-2.015684	28.475209
Se	3.491266	-2.015684	34.607402
Se	3.491266	-2.015684	50.818226
Sb	2.327511	-4.031367	49.235524
Sb	2.327511	-4.031367	55.173577
S	2.327511	-4.031367	37.966946
Se	2.327511	-4.031367	44.099138
Se	2.327511	-4.031367	60.309963
Sb	3.491266	2.015684	39.743788
Sb	3.491266	2.015684	45.681841
S	3.491266	2.015684	28.475209
Se	3.491266	2.015684	34.607402
Se	3.491266	2.015684	50.818226
Sb	2.327511	0.000000	49.235524
Sb	2.327511	0.000000	55.173577
S	2.327511	0.000000	37.966946
Se	2.327511	0.000000	44.099138
Se	2.327511	0.000000	60.309963
Sb	1.163755	-2.015684	58.727260
Sb	1.163755	-2.015684	64.665314
S	1.163755	-2.015684	47.458682
Se	1.163755	-2.015684	53.590875
Se	1.163755	-2.015684	69.801699
Sb	2.327511	4.031367	49.235524
Sb	2.327511	4.031367	55.173577
S	2.327511	4.031367	37.966946
Se	2.327511	4.031367	44.099138
Se	2.327511	4.031367	60.309963
Sb	1.163755	2.015684	58.727260
Sb	1.163755	2.015684	64.665314
S	1.163755	2.015684	47.458682
Se	1.163755	2.015684	53.590875
Se	1.163755	2.015684	69.801699
Sb	0.000000	0.000000	68.218997
Sb	0.000000	0.000000	74.157050
S	0.000000	0.000000	56.950419
Se	0.000000	0.000000	63.082611
Se	0.000000	0.000000	79.293436
