40

Sb	1.023418	0.590871	6.846945
Sb	3.070254	1.772612	2.663590
Te	5.117090	2.954353	4.731005
S	1.023418	0.590871	1.317579
Se	3.070254	1.772612	8.386662
Sb	-1.023418	-0.590871	16.425257
Sb	1.023418	0.590871	12.241902
Te	3.070254	1.772612	14.309317
S	-1.023418	-0.590871	10.895891
Se	1.023418	0.590871	17.964974
Sb	-3.070254	-1.772612	26.003570
Sb	-1.023418	-0.590870	21.820214
Te	1.023418	0.590871	23.887629
S	-3.070254	-1.772612	20.474203
Se	-1.023418	-0.590870	27.543286
Sb	3.070254	4.136094	6.846945
Sb	5.117090	5.317836	2.663590
Te	7.163926	6.499577	4.731005
S	3.070254	4.136094	1.317579
Se	5.117090	5.317836	8.386662
Sb	1.023418	2.954353	16.425257
Sb	3.070254	4.136094	12.241902
Te	5.117090	5.317836	14.309317
S	1.023418	2.954353	10.895891
Se	3.070254	4.136095	17.964974
Sb	-1.023418	1.772612	26.003570
Sb	1.023418	2.954353	21.820214
Te	3.070254	4.136095	23.887629
S	-1.023418	1.772612	20.474203
Se	1.023418	2.954353	27.543286
Sb	5.117090	7.681318	6.846945
Sb	7.163926	8.863059	2.663590
Te	9.210762	10.044801	4.731005
S	5.117090	7.681318	1.317579
Se	7.163926	8.863059	8.386662
Sb	3.070254	6.499577	16.425257
Sb	5.117090	7.681318	12.241902
Te	7.163926	8.863060	14.309317
S	3.070254	6.499577	10.895891
Se	5.117090	7.681318	17.964974
Sb	1.023418	5.317836	26.003570
Sb	3.070254	6.499577	21.820214
Te	5.117090	7.681318	23.887629
S	1.023418	5.317836	20.474203
Se	3.070254	6.499577	27.543286
Sb	5.117090	0.590871	6.846945
Sb	7.163926	1.772612	2.663590
Te	9.210762	2.954353	4.731005
S	5.117090	0.590871	1.317579
Se	7.163926	1.772612	8.386662
Sb	3.070254	-0.590871	16.425257
Sb	5.117090	0.590871	12.241902
Te	7.163926	1.772612	14.309317
S	3.070254	-0.590871	10.895891
Se	5.117090	0.590871	17.964974
Sb	1.023418	-1.772612	26.003570
Sb	3.070254	-0.590870	21.820214
Te	5.117090	0.590871	23.887629
S	1.023418	-1.772612	20.474203
Se	3.070254	-0.590870	27.543286
Sb	7.163926	4.136094	6.846945
Sb	9.210762	5.317836	2.663590
Te	11.257598	6.499577	4.731005
S	7.163926	4.136094	1.317579
Se	9.210762	5.317836	8.386662
Sb	5.117090	2.954353	16.425257
Sb	7.163926	4.136094	12.241902
Te	9.210762	5.317836	14.309317
S	5.117090	2.954353	10.895891
Se	7.163926	4.136095	17.964974
Sb	3.070254	1.772612	26.003570
Sb	5.117090	2.954353	21.820214
Te	7.163926	4.136095	23.887629
S	3.070254	1.772612	20.474203
Se	5.117090	2.954353	27.543286
Sb	9.210762	7.681318	6.846945
Sb	11.257597	8.863059	2.663590
Te	13.304433	10.044801	4.731005
S	9.210762	7.681318	1.317579
Se	11.257598	8.863059	8.386662
Sb	7.163926	6.499577	16.425257
Sb	9.210762	7.681318	12.241902
Te	11.257598	8.863060	14.309317
S	7.163926	6.499577	10.895891
Se	9.210762	7.681318	17.964974
Sb	5.117090	5.317836	26.003570
Sb	7.163926	6.499577	21.820214
Te	9.210762	7.681318	23.887629
S	5.117090	5.317836	20.474203
Se	7.163926	6.499577	27.543286
Sb	9.210762	0.590871	6.846945
Sb	11.257597	1.772612	2.663590
Te	13.304433	2.954353	4.731005
S	9.210762	0.590871	1.317579
Se	11.257598	1.772612	8.386662
Sb	7.163926	-0.590871	16.425257
Sb	9.210762	0.590871	12.241902
Te	11.257598	1.772612	14.309317
S	7.163926	-0.590871	10.895891
Se	9.210762	0.590871	17.964974
Sb	5.117090	-1.772612	26.003570
Sb	7.163926	-0.590870	21.820214
Te	9.210762	0.590871	23.887629
S	5.117090	-1.772612	20.474203
Se	7.163926	-0.590870	27.543286
Sb	11.257597	4.136094	6.846945
Sb	13.304433	5.317836	2.663590
Te	15.351269	6.499577	4.731005
S	11.257597	4.136094	1.317579
Se	13.304433	5.317836	8.386662
Sb	9.210762	2.954353	16.425257
Sb	11.257598	4.136094	12.241902
Te	13.304434	5.317836	14.309317
S	9.210762	2.954353	10.895891
Se	11.257598	4.136095	17.964974
Sb	7.163926	1.772612	26.003570
Sb	9.210762	2.954353	21.820214
Te	11.257598	4.136095	23.887629
S	7.163926	1.772612	20.474203
Se	9.210762	2.954353	27.543286
Sb	13.304433	7.681318	6.846945
Sb	15.351269	8.863059	2.663590
Te	17.398105	10.044801	4.731005
S	13.304433	7.681318	1.317579
Se	15.351269	8.863059	8.386662
Sb	11.257598	6.499577	16.425257
Sb	13.304433	7.681318	12.241902
Te	15.351269	8.863060	14.309317
S	11.257598	6.499577	10.895891
Se	13.304434	7.681318	17.964974
Sb	9.210762	5.317836	26.003570
Sb	11.257598	6.499577	21.820214
Te	13.304434	7.681318	23.887629
S	9.210762	5.317836	20.474203
Se	11.257598	6.499577	27.543286
