40

Sb	-0.000000	0.000000	11.079932
Sb	-0.000000	-0.000000	16.682269
S	0.000000	0.000000	0.000000
S	-0.000000	-0.000000	5.987724
S	-0.000000	-0.000000	21.774477
Sb	-1.135980	-1.967575	20.334000
Sb	-1.135980	-1.967575	25.936336
S	-1.135980	-1.967575	9.254067
S	-1.135980	-1.967575	15.241791
S	-1.135980	-1.967575	31.028545
Sb	-2.271960	-3.935151	29.588067
Sb	-2.271960	-3.935151	35.190403
S	-2.271960	-3.935151	18.508134
S	-2.271960	-3.935151	24.495858
S	-2.271960	-3.935151	40.282612
Sb	-1.135980	1.967575	20.334000
Sb	-1.135980	1.967575	25.936336
S	-1.135980	1.967575	9.254067
S	-1.135980	1.967575	15.241791
S	-1.135980	1.967575	31.028545
Sb	-2.271960	0.000000	29.588067
Sb	-2.271960	0.000000	35.190403
S	-2.271960	0.000000	18.508134
S	-2.271960	0.000000	24.495858
S	-2.271960	0.000000	40.282612
Sb	-3.407940	-1.967575	38.842134
Sb	-3.407940	-1.967575	44.444471
S	-3.407940	-1.967575	27.762201
S	-3.407940	-1.967575	33.749926
S	-3.407940	-1.967575	49.536679
Sb	-2.271960	3.935151	29.588067
Sb	-2.271960	3.935151	35.190403
S	-2.271960	3.935151	18.508134
S	-2.271960	3.935151	24.495858
S	-2.271960	3.935151	40.282612
Sb	-3.407940	1.967575	38.842134
Sb	-3.407940	1.967575	44.444471
S	-3.407940	1.967575	27.762201
S	-3.407940	1.967575	33.749926
S	-3.407940	1.967575	49.536679
Sb	-4.543920	0.000000	48.096201
Sb	-4.543920	0.000000	53.698538
S	-4.543920	0.000000	37.016269
S	-4.543920	0.000000	43.003993
S	-4.543920	0.000000	58.790746
Sb	2.271960	0.000000	20.334000
Sb	2.271960	-0.000000	25.936336
S	2.271960	0.000000	9.254067
S	2.271960	-0.000000	15.241791
S	2.271960	-0.000000	31.028545
Sb	1.135980	-1.967575	29.588067
Sb	1.135980	-1.967575	35.190403
S	1.135980	-1.967575	18.508134
S	1.135980	-1.967575	24.495858
S	1.135980	-1.967575	40.282612
Sb	-0.000000	-3.935151	38.842134
Sb	-0.000000	-3.935151	44.444471
S	-0.000000	-3.935151	27.762201
S	-0.000000	-3.935151	33.749926
S	-0.000000	-3.935151	49.536679
Sb	1.135980	1.967575	29.588067
Sb	1.135980	1.967575	35.190403
S	1.135980	1.967575	18.508134
S	1.135980	1.967575	24.495858
S	1.135980	1.967575	40.282612
Sb	-0.000000	0.000000	38.842134
Sb	-0.000000	0.000000	44.444471
S	-0.000000	0.000000	27.762201
S	-0.000000	0.000000	33.749926
S	-0.000000	0.000000	49.536679
Sb	-1.135980	-1.967575	48.096201
Sb	-1.135980	-1.967575	53.698538
S	-1.135980	-1.967575	37.016269
S	-1.135980	-1.967575	43.003993
S	-1.135980	-1.967575	58.790746
Sb	-0.000000	3.935151	38.842134
Sb	-0.000000	3.935151	44.444471
S	-0.000000	3.935151	27.762201
S	-0.000000	3.935151	33.749926
S	-0.000000	3.935151	49.536679
Sb	-1.135980	1.967575	48.096201
Sb	-1.135980	1.967575	53.698538
S	-1.135980	1.967575	37.016269
S	-1.135980	1.967575	43.003993
S	-1.135980	1.967575	58.790746
Sb	-2.271960	0.000000	57.350268
Sb	-2.271960	0.000000	62.952605
S	-2.271960	0.000000	46.270336
S	-2.271960	0.000000	52.258060
S	-2.271960	0.000000	68.044813
Sb	4.543920	0.000000	29.588067
Sb	4.543920	-0.000000	35.190403
S	4.543920	0.000000	18.508134
S	4.543920	-0.000000	24.495858
S	4.543920	-0.000000	40.282612
Sb	3.407940	-1.967575	38.842134
Sb	3.407940	-1.967575	44.444471
S	3.407940	-1.967575	27.762201
S	3.407940	-1.967575	33.749926
S	3.407940	-1.967575	49.536679
Sb	2.271960	-3.935151	48.096201
Sb	2.271960	-3.935151	53.698538
S	2.271960	-3.935151	37.016269
S	2.271960	-3.935151	43.003993
S	2.271960	-3.935151	58.790746
Sb	3.407940	1.967575	38.842134
Sb	3.407940	1.967575	44.444471
S	3.407940	1.967575	27.762201
S	3.407940	1.967575	33.749926
S	3.407940	1.967575	49.536679
Sb	2.271960	0.000000	48.096201
Sb	2.271960	0.000000	53.698538
S	2.271960	0.000000	37.016269
S	2.271960	0.000000	43.003993
S	2.271960	0.000000	58.790746
Sb	1.135980	-1.967575	57.350268
Sb	1.135980	-1.967575	62.952605
S	1.135980	-1.967575	46.270336
S	1.135980	-1.967575	52.258060
S	1.135980	-1.967575	68.044813
Sb	2.271960	3.935151	48.096201
Sb	2.271960	3.935151	53.698538
S	2.271960	3.935151	37.016269
S	2.271960	3.935151	43.003993
S	2.271960	3.935151	58.790746
Sb	1.135980	1.967575	57.350268
Sb	1.135980	1.967575	62.952605
S	1.135980	1.967575	46.270336
S	1.135980	1.967575	52.258060
S	1.135980	1.967575	68.044813
Sb	-0.000000	0.000000	66.604335
Sb	-0.000000	0.000000	72.206672
S	-0.000000	0.000000	55.524403
S	-0.000000	0.000000	61.512127
S	-0.000000	0.000000	77.298880
