40

Bi	1.017010	0.587171	6.511686
Bi	3.051029	1.761512	2.833803
S	5.085048	2.935854	4.657267
S	1.017010	0.587171	1.391230
Se	3.051029	1.761512	8.133767
Bi	-1.017009	-0.587170	15.922787
Bi	1.017010	0.587171	12.244904
S	3.051029	1.761512	14.068368
S	-1.017009	-0.587171	10.802331
Se	1.017010	0.587171	17.544868
Bi	-3.051028	-1.761512	25.333887
Bi	-1.017009	-0.587170	21.656005
S	1.017010	0.587171	23.479469
S	-3.051028	-1.761512	20.213432
Se	-1.017009	-0.587170	26.955969
Bi	3.051029	4.110195	6.511686
Bi	5.085048	5.284536	2.833803
S	7.119067	6.458878	4.657267
S	3.051029	4.110195	1.391230
Se	5.085048	5.284536	8.133767
Bi	1.017010	2.935854	15.922787
Bi	3.051029	4.110195	12.244904
S	5.085048	5.284536	14.068368
S	1.017010	2.935854	10.802331
Se	3.051029	4.110195	17.544868
Bi	-1.017009	1.761512	25.333887
Bi	1.017010	2.935854	21.656005
S	3.051030	4.110195	23.479469
S	-1.017009	1.761512	20.213432
Se	1.017010	2.935854	26.955969
Bi	5.085048	7.633219	6.511686
Bi	7.119067	8.807560	2.833803
S	9.153086	9.981902	4.657267
S	5.085048	7.633219	1.391230
Se	7.119067	8.807560	8.133767
Bi	3.051029	6.458878	15.922787
Bi	5.085048	7.633219	12.244904
S	7.119068	8.807561	14.068368
S	3.051029	6.458878	10.802331
Se	5.085048	7.633219	17.544868
Bi	1.017011	5.284537	25.333887
Bi	3.051029	6.458878	21.656005
S	5.085049	7.633219	23.479469
S	1.017010	5.284536	20.213432
Se	3.051030	6.458878	26.955969
Bi	5.085048	0.587171	6.511686
Bi	7.119067	1.761512	2.833803
S	9.153086	2.935854	4.657267
S	5.085048	0.587171	1.391230
Se	7.119067	1.761512	8.133767
Bi	3.051029	-0.587170	15.922787
Bi	5.085048	0.587171	12.244904
S	7.119067	1.761512	14.068368
S	3.051029	-0.587171	10.802331
Se	5.085048	0.587171	17.544868
Bi	1.017010	-1.761512	25.333887
Bi	3.051029	-0.587170	21.656005
S	5.085048	0.587171	23.479469
S	1.017010	-1.761512	20.213432
Se	3.051029	-0.587170	26.955969
Bi	7.119067	4.110195	6.511686
Bi	9.153086	5.284536	2.833803
S	11.187105	6.458878	4.657267
S	7.119067	4.110195	1.391230
Se	9.153086	5.284536	8.133767
Bi	5.085048	2.935854	15.922787
Bi	7.119067	4.110195	12.244904
S	9.153086	5.284536	14.068368
S	5.085048	2.935854	10.802331
Se	7.119067	4.110195	17.544868
Bi	3.051029	1.761512	25.333887
Bi	5.085048	2.935854	21.656005
S	7.119068	4.110195	23.479469
S	3.051029	1.761512	20.213432
Se	5.085048	2.935854	26.955969
Bi	9.153086	7.633219	6.511686
Bi	11.187105	8.807560	2.833803
S	13.221124	9.981902	4.657267
S	9.153086	7.633219	1.391230
Se	11.187105	8.807560	8.133767
Bi	7.119067	6.458878	15.922787
Bi	9.153086	7.633219	12.244904
S	11.187106	8.807561	14.068368
S	7.119067	6.458878	10.802331
Se	9.153086	7.633219	17.544868
Bi	5.085049	5.284537	25.333887
Bi	7.119067	6.458878	21.656005
S	9.153087	7.633219	23.479469
S	5.085048	5.284536	20.213432
Se	7.119068	6.458878	26.955969
Bi	9.153086	0.587171	6.511686
Bi	11.187105	1.761512	2.833803
S	13.221124	2.935854	4.657267
S	9.153086	0.587171	1.391230
Se	11.187105	1.761512	8.133767
Bi	7.119067	-0.587170	15.922787
Bi	9.153086	0.587171	12.244904
S	11.187105	1.761512	14.068368
S	7.119067	-0.587171	10.802331
Se	9.153086	0.587171	17.544868
Bi	5.085048	-1.761512	25.333887
Bi	7.119067	-0.587170	21.656005
S	9.153086	0.587171	23.479469
S	5.085048	-1.761512	20.213432
Se	7.119067	-0.587170	26.955969
Bi	11.187105	4.110195	6.511686
Bi	13.221124	5.284536	2.833803
S	15.255143	6.458878	4.657267
S	11.187105	4.110195	1.391230
Se	13.221124	5.284536	8.133767
Bi	9.153086	2.935854	15.922787
Bi	11.187105	4.110195	12.244904
S	13.221124	5.284536	14.068368
S	9.153086	2.935854	10.802331
Se	11.187105	4.110195	17.544868
Bi	7.119067	1.761512	25.333887
Bi	9.153086	2.935854	21.656005
S	11.187106	4.110195	23.479469
S	7.119067	1.761512	20.213432
Se	9.153086	2.935854	26.955969
Bi	13.221124	7.633219	6.511686
Bi	15.255143	8.807560	2.833803
S	17.289162	9.981902	4.657267
S	13.221124	7.633219	1.391230
Se	15.255143	8.807560	8.133767
Bi	11.187105	6.458878	15.922787
Bi	13.221124	7.633219	12.244904
S	15.255144	8.807561	14.068368
S	11.187105	6.458878	10.802331
Se	13.221124	7.633219	17.544868
Bi	9.153087	5.284537	25.333887
Bi	11.187105	6.458878	21.656005
S	13.221125	7.633219	23.479469
S	9.153086	5.284536	20.213432
Se	11.187106	6.458878	26.955969
