40

Sb	1.016819	0.587061	6.630460
Bi	3.050458	1.761183	2.769693
Se	-1.016819	-0.587061	4.728753
Se	3.050458	1.761183	8.181986
S	1.016819	0.587061	1.318589
Sb	-1.016819	-0.587061	16.082253
Bi	1.016819	0.587061	12.221486
Se	-3.050457	-1.761182	14.180546
Se	1.016820	0.587061	17.633779
S	-1.016819	-0.587061	10.770382
Sb	-3.050457	-1.761182	25.534046
Bi	-1.016819	-0.587061	21.673279
Se	-5.084096	-2.935304	23.632339
Se	-1.016819	-0.587061	27.085571
S	-3.050457	-1.761182	20.222175
Sb	3.050458	4.109426	6.630460
Bi	5.084096	5.283548	2.769693
Se	1.016819	2.935304	4.728753
Se	5.084096	5.283548	8.181986
S	3.050457	4.109426	1.318589
Sb	1.016819	2.935305	16.082253
Bi	3.050458	4.109426	12.221486
Se	-1.016819	1.761183	14.180546
Se	3.050458	4.109426	17.633779
S	1.016819	2.935305	10.770382
Sb	-1.016819	1.761183	25.534046
Bi	1.016819	2.935305	21.673279
Se	-3.050457	0.587061	23.632339
Se	1.016820	2.935305	27.085571
S	-1.016819	1.761183	20.222175
Sb	5.084096	7.631792	6.630460
Bi	7.117734	8.805913	2.769693
Se	3.050457	6.457670	4.728753
Se	7.117734	8.805913	8.181986
S	5.084096	7.631791	1.318589
Sb	3.050458	6.457670	16.082253
Bi	5.084096	7.631792	12.221486
Se	1.016819	5.283548	14.180546
Se	5.084096	7.631792	17.633779
S	3.050457	6.457670	10.770382
Sb	1.016819	5.283548	25.534046
Bi	3.050458	6.457670	21.673279
Se	-1.016819	4.109426	23.632339
Se	3.050458	6.457670	27.085571
S	1.016819	5.283548	20.222175
Sb	5.084096	0.587061	6.630460
Bi	7.117735	1.761183	2.769693
Se	3.050458	-0.587061	4.728753
Se	7.117735	1.761183	8.181986
S	5.084096	0.587061	1.318589
Sb	3.050458	-0.587061	16.082253
Bi	5.084096	0.587061	12.221486
Se	1.016820	-1.761182	14.180546
Se	5.084096	0.587061	17.633779
S	3.050458	-0.587061	10.770382
Sb	1.016820	-1.761182	25.534046
Bi	3.050458	-0.587061	21.673279
Se	-1.016819	-2.935304	23.632339
Se	3.050458	-0.587061	27.085571
S	1.016820	-1.761182	20.222175
Sb	7.117735	4.109426	6.630460
Bi	9.151373	5.283548	2.769693
Se	5.084096	2.935304	4.728753
Se	9.151373	5.283548	8.181986
S	7.117734	4.109426	1.318589
Sb	5.084096	2.935305	16.082253
Bi	7.117735	4.109426	12.221486
Se	3.050458	1.761183	14.180546
Se	7.117735	4.109426	17.633779
S	5.084096	2.935305	10.770382
Sb	3.050458	1.761183	25.534046
Bi	5.084096	2.935305	21.673279
Se	1.016820	0.587061	23.632339
Se	5.084096	2.935305	27.085571
S	3.050458	1.761183	20.222175
Sb	9.151373	7.631792	6.630460
Bi	11.185011	8.805913	2.769693
Se	7.117734	6.457670	4.728753
Se	11.185011	8.805913	8.181986
S	9.151373	7.631791	1.318589
Sb	7.117735	6.457670	16.082253
Bi	9.151373	7.631792	12.221486
Se	5.084096	5.283548	14.180546
Se	9.151373	7.631792	17.633779
S	7.117734	6.457670	10.770382
Sb	5.084096	5.283548	25.534046
Bi	7.117735	6.457670	21.673279
Se	3.050458	4.109426	23.632339
Se	7.117735	6.457670	27.085571
S	5.084096	5.283548	20.222175
Sb	9.151373	0.587061	6.630460
Bi	11.185012	1.761183	2.769693
Se	7.117735	-0.587061	4.728753
Se	11.185012	1.761183	8.181986
S	9.151373	0.587061	1.318589
Sb	7.117735	-0.587061	16.082253
Bi	9.151373	0.587061	12.221486
Se	5.084097	-1.761182	14.180546
Se	9.151373	0.587061	17.633779
S	7.117735	-0.587061	10.770382
Sb	5.084097	-1.761182	25.534046
Bi	7.117735	-0.587061	21.673279
Se	3.050458	-2.935304	23.632339
Se	7.117735	-0.587061	27.085571
S	5.084097	-1.761182	20.222175
Sb	11.185012	4.109426	6.630460
Bi	13.218650	5.283548	2.769693
Se	9.151373	2.935304	4.728753
Se	13.218650	5.283548	8.181986
S	11.185011	4.109426	1.318589
Sb	9.151373	2.935305	16.082253
Bi	11.185012	4.109426	12.221486
Se	7.117735	1.761183	14.180546
Se	11.185012	4.109426	17.633779
S	9.151373	2.935305	10.770382
Sb	7.117735	1.761183	25.534046
Bi	9.151373	2.935305	21.673279
Se	5.084097	0.587061	23.632339
Se	9.151373	2.935305	27.085571
S	7.117735	1.761183	20.222175
Sb	13.218650	7.631792	6.630460
Bi	15.252288	8.805913	2.769693
Se	11.185011	6.457670	4.728753
Se	15.252288	8.805913	8.181986
S	13.218650	7.631791	1.318589
Sb	11.185012	6.457670	16.082253
Bi	13.218650	7.631792	12.221486
Se	9.151373	5.283548	14.180546
Se	13.218650	7.631792	17.633779
S	11.185011	6.457670	10.770382
Sb	9.151373	5.283548	25.534046
Bi	11.185012	6.457670	21.673279
Se	7.117735	4.109426	23.632339
Se	11.185012	6.457670	27.085571
S	9.151373	5.283548	20.222175
