40

I	2.001546	2.001546	2.001546
N	0.000000	0.000000	0.000000
O	0.000000	2.001546	2.001546
O	2.001546	0.000000	2.001546
O	2.001546	2.001546	0.000000
I	2.001546	2.001546	6.004637
N	0.000000	0.000000	4.003092
O	0.000000	2.001546	6.004637
O	2.001546	0.000000	6.004637
O	2.001546	2.001546	4.003092
I	2.001546	6.004637	2.001546
N	0.000000	4.003092	0.000000
O	0.000000	6.004637	2.001546
O	2.001546	4.003092	2.001546
O	2.001546	6.004637	0.000000
I	2.001546	6.004637	6.004637
N	0.000000	4.003092	4.003092
O	0.000000	6.004637	6.004637
O	2.001546	4.003092	6.004637
O	2.001546	6.004637	4.003092
I	6.004637	2.001546	2.001546
N	4.003092	0.000000	0.000000
O	4.003092	2.001546	2.001546
O	6.004637	0.000000	2.001546
O	6.004637	2.001546	0.000000
I	6.004637	2.001546	6.004637
N	4.003092	0.000000	4.003092
O	4.003092	2.001546	6.004637
O	6.004637	0.000000	6.004637
O	6.004637	2.001546	4.003092
I	6.004637	6.004637	2.001546
N	4.003092	4.003092	0.000000
O	4.003092	6.004637	2.001546
O	6.004637	4.003092	2.001546
O	6.004637	6.004637	0.000000
I	6.004637	6.004637	6.004637
N	4.003092	4.003092	4.003092
O	4.003092	6.004637	6.004637
O	6.004637	4.003092	6.004637
O	6.004637	6.004637	4.003092
