40

Ge	1.978227	1.978227	1.978227
O	0.000000	1.978227	1.978227
O	1.978227	0.000000	1.978227
O	1.978227	1.978227	0.000000
Rb	0.000000	0.000000	0.000000
Ge	1.978227	1.978227	5.934681
O	0.000000	1.978227	5.934681
O	1.978227	0.000000	5.934681
O	1.978227	1.978227	3.956454
Rb	0.000000	0.000000	3.956454
Ge	1.978227	5.934681	1.978227
O	0.000000	5.934681	1.978227
O	1.978227	3.956454	1.978227
O	1.978227	5.934681	0.000000
Rb	0.000000	3.956454	0.000000
Ge	1.978227	5.934681	5.934681
O	0.000000	5.934681	5.934681
O	1.978227	3.956454	5.934681
O	1.978227	5.934681	3.956454
Rb	0.000000	3.956454	3.956454
Ge	5.934681	1.978227	1.978227
O	3.956454	1.978227	1.978227
O	5.934681	0.000000	1.978227
O	5.934681	1.978227	0.000000
Rb	3.956454	0.000000	0.000000
Ge	5.934681	1.978227	5.934681
O	3.956454	1.978227	5.934681
O	5.934681	0.000000	5.934681
O	5.934681	1.978227	3.956454
Rb	3.956454	0.000000	3.956454
Ge	5.934681	5.934681	1.978227
O	3.956454	5.934681	1.978227
O	5.934681	3.956454	1.978227
O	5.934681	5.934681	0.000000
Rb	3.956454	3.956454	0.000000
Ge	5.934681	5.934681	5.934681
O	3.956454	5.934681	5.934681
O	5.934681	3.956454	5.934681
O	5.934681	5.934681	3.956454
Rb	3.956454	3.956454	3.956454
