40

Hf	2.061195	2.061195	2.061195
O	2.061195	2.061195	0.000000
O	0.000000	2.061195	2.061195
O	2.061195	0.000000	2.061195
Pb	-0.015000	0.000000	0.000000
Hf	2.061195	2.061195	6.183585
O	2.061195	2.061195	4.122390
O	0.000000	2.061195	6.183585
O	2.061195	0.000000	6.183585
Pb	-0.015000	0.000000	4.122390
Hf	2.061195	6.183585	2.061195
O	2.061195	6.183585	0.000000
O	0.000000	6.183585	2.061195
O	2.061195	4.122390	2.061195
Pb	-0.015000	4.122390	0.000000
Hf	2.061195	6.183585	6.183585
O	2.061195	6.183585	4.122390
O	0.000000	6.183585	6.183585
O	2.061195	4.122390	6.183585
Pb	-0.015000	4.122390	4.122390
Hf	6.183585	2.061195	2.061195
O	6.183585	2.061195	0.000000
O	4.122390	2.061195	2.061195
O	6.183585	0.000000	2.061195
Pb	4.107390	0.000000	0.000000
Hf	6.183585	2.061195	6.183585
O	6.183585	2.061195	4.122390
O	4.122390	2.061195	6.183585
O	6.183585	0.000000	6.183585
Pb	4.107390	0.000000	4.122390
Hf	6.183585	6.183585	2.061195
O	6.183585	6.183585	0.000000
O	4.122390	6.183585	2.061195
O	6.183585	4.122390	2.061195
Pb	4.107390	4.122390	0.000000
Hf	6.183585	6.183585	6.183585
O	6.183585	6.183585	4.122390
O	4.122390	6.183585	6.183585
O	6.183585	4.122390	6.183585
Pb	4.107390	4.122390	4.122390
