448

Fe	7.463751	7.463255	3.199244
Fe	5.331251	5.331743	3.199243
Fe	3.198751	1.066743	1.065754
Fe	1.066251	3.198255	1.065754
Fe	7.463751	3.198255	7.464243
Fe	5.331251	1.066743	7.464244
Fe	3.198751	5.331743	5.330755
Fe	1.066251	7.463254	5.330754
Fe	3.198751	3.198259	3.199239
Fe	1.066251	1.066739	3.199239
Fe	7.463751	5.331739	1.065759
Fe	5.331251	7.463259	1.065759
Fe	3.198751	7.463259	7.464239
Fe	1.066251	5.331739	7.464239
Fe	7.463751	1.066739	5.330759
Fe	5.331251	3.198259	5.330759
Zn	4.265001	4.264998	8.529999
Zn	0.000001	8.530000	8.529999
Zn	4.265001	-0.000002	4.264999
Zn	0.000001	4.265000	4.264999
Zn	2.132501	6.397499	2.132500
Zn	6.397501	2.132499	2.132498
Zn	2.132501	2.132499	6.397500
Zn	6.397501	6.397499	6.397498
O	0.976946	7.555749	3.286873
O	5.241948	3.290755	3.286871
O	0.976946	3.290749	7.551873
O	5.241948	7.555755	7.551871
O	0.976948	0.974243	5.243127
O	5.241946	5.239249	5.243125
O	0.976948	5.239243	0.978127
O	5.241946	0.974249	0.978125
O	7.553056	7.555749	5.243125
O	3.288053	3.290755	5.243126
O	7.553056	3.290749	0.978125
O	3.288053	7.555755	0.978126
O	7.553053	0.974243	3.286871
O	3.288056	5.239249	3.286873
O	7.553053	5.239244	7.551872
O	3.288056	0.974249	7.551873
O	7.374445	1.154373	7.371749
O	3.109448	5.419371	7.371743
O	7.374445	5.419373	3.106749
O	3.109448	1.154371	3.106744
O	5.420553	1.154371	5.423254
O	1.155556	5.419373	5.423249
O	5.420553	5.419371	1.158254
O	1.155556	1.154373	1.158249
O	7.374448	3.110626	5.423255
O	3.109445	7.375625	5.423249
O	7.374448	7.375626	1.158255
O	3.109445	3.110625	1.158250
O	5.420556	3.110625	7.371749
O	1.155553	7.375627	7.371743
O	5.420556	7.375625	3.106749
O	1.155553	3.110627	3.106743
Fe	7.463751	7.463255	11.729244
Fe	5.331251	5.331743	11.729243
Fe	3.198751	1.066743	9.595754
Fe	1.066251	3.198255	9.595754
Fe	7.463751	3.198255	15.994243
Fe	5.331251	1.066743	15.994244
Fe	3.198751	5.331743	13.860755
Fe	1.066251	7.463254	13.860754
Fe	3.198751	3.198259	11.729239
Fe	1.066251	1.066739	11.729239
Fe	7.463751	5.331739	9.595759
Fe	5.331251	7.463259	9.595759
Fe	3.198751	7.463259	15.994239
Fe	1.066251	5.331739	15.994239
Fe	7.463751	1.066739	13.860759
Fe	5.331251	3.198259	13.860759
Zn	4.265001	4.264998	17.059999
Zn	0.000001	8.530000	17.059999
Zn	4.265001	-0.000002	12.794999
Zn	0.000001	4.265000	12.794999
Zn	2.132501	6.397499	10.662500
Zn	6.397501	2.132499	10.662498
Zn	2.132501	2.132499	14.927500
Zn	6.397501	6.397499	14.927498
O	0.976946	7.555749	11.816873
O	5.241948	3.290755	11.816871
O	0.976946	3.290749	16.081873
O	5.241948	7.555755	16.081871
O	0.976948	0.974243	13.773127
O	5.241946	5.239249	13.773125
O	0.976948	5.239243	9.508127
O	5.241946	0.974249	9.508125
O	7.553056	7.555749	13.773125
O	3.288053	3.290755	13.773126
O	7.553056	3.290749	9.508125
O	3.288053	7.555755	9.508126
O	7.553053	0.974243	11.816871
O	3.288056	5.239249	11.816873
O	7.553053	5.239244	16.081872
O	3.288056	0.974249	16.081873
O	7.374445	1.154373	15.901749
O	3.109448	5.419371	15.901743
O	7.374445	5.419373	11.636749
O	3.109448	1.154371	11.636744
O	5.420553	1.154371	13.953254
O	1.155556	5.419373	13.953249
O	5.420553	5.419371	9.688254
O	1.155556	1.154373	9.688249
O	7.374448	3.110626	13.953255
O	3.109445	7.375625	13.953249
O	7.374448	7.375626	9.688255
O	3.109445	3.110625	9.688250
O	5.420556	3.110625	15.901749
O	1.155553	7.375627	15.901743
O	5.420556	7.375625	11.636749
O	1.155553	3.110627	11.636743
Fe	7.463751	15.993255	3.199244
Fe	5.331251	13.861743	3.199243
Fe	3.198751	9.596743	1.065754
Fe	1.066251	11.728255	1.065754
Fe	7.463751	11.728255	7.464243
Fe	5.331251	9.596743	7.464244
Fe	3.198751	13.861743	5.330755
Fe	1.066251	15.993254	5.330754
Fe	3.198751	11.728259	3.199239
Fe	1.066251	9.596739	3.199239
Fe	7.463751	13.861739	1.065759
Fe	5.331251	15.993259	1.065759
Fe	3.198751	15.993259	7.464239
Fe	1.066251	13.861739	7.464239
Fe	7.463751	9.596739	5.330759
Fe	5.331251	11.728259	5.330759
Zn	4.265001	12.794998	8.529999
Zn	0.000001	17.060000	8.529999
Zn	4.265001	8.529998	4.264999
Zn	0.000001	12.795000	4.264999
Zn	2.132501	14.927499	2.132500
Zn	6.397501	10.662499	2.132498
Zn	2.132501	10.662499	6.397500
Zn	6.397501	14.927499	6.397498
O	0.976946	16.085749	3.286873
O	5.241948	11.820755	3.286871
O	0.976946	11.820749	7.551873
O	5.241948	16.085755	7.551871
O	0.976948	9.504243	5.243127
O	5.241946	13.769249	5.243125
O	0.976948	13.769243	0.978127
O	5.241946	9.504249	0.978125
O	7.553056	16.085749	5.243125
O	3.288053	11.820755	5.243126
O	7.553056	11.820749	0.978125
O	3.288053	16.085755	0.978126
O	7.553053	9.504243	3.286871
O	3.288056	13.769249	3.286873
O	7.553053	13.769244	7.551872
O	3.288056	9.504249	7.551873
O	7.374445	9.684373	7.371749
O	3.109448	13.949371	7.371743
O	7.374445	13.949373	3.106749
O	3.109448	9.684371	3.106744
O	5.420553	9.684371	5.423254
O	1.155556	13.949373	5.423249
O	5.420553	13.949371	1.158254
O	1.155556	9.684373	1.158249
O	7.374448	11.640626	5.423255
O	3.109445	15.905625	5.423249
O	7.374448	15.905626	1.158255
O	3.109445	11.640625	1.158250
O	5.420556	11.640625	7.371749
O	1.155553	15.905627	7.371743
O	5.420556	15.905625	3.106749
O	1.155553	11.640627	3.106743
Fe	7.463751	15.993255	11.729244
Fe	5.331251	13.861743	11.729243
Fe	3.198751	9.596743	9.595754
Fe	1.066251	11.728255	9.595754
Fe	7.463751	11.728255	15.994243
Fe	5.331251	9.596743	15.994244
Fe	3.198751	13.861743	13.860755
Fe	1.066251	15.993254	13.860754
Fe	3.198751	11.728259	11.729239
Fe	1.066251	9.596739	11.729239
Fe	7.463751	13.861739	9.595759
Fe	5.331251	15.993259	9.595759
Fe	3.198751	15.993259	15.994239
Fe	1.066251	13.861739	15.994239
Fe	7.463751	9.596739	13.860759
Fe	5.331251	11.728259	13.860759
Zn	4.265001	12.794998	17.059999
Zn	0.000001	17.060000	17.059999
Zn	4.265001	8.529998	12.794999
Zn	0.000001	12.795000	12.794999
Zn	2.132501	14.927499	10.662500
Zn	6.397501	10.662499	10.662498
Zn	2.132501	10.662499	14.927500
Zn	6.397501	14.927499	14.927498
O	0.976946	16.085749	11.816873
O	5.241948	11.820755	11.816871
O	0.976946	11.820749	16.081873
O	5.241948	16.085755	16.081871
O	0.976948	9.504243	13.773127
O	5.241946	13.769249	13.773125
O	0.976948	13.769243	9.508127
O	5.241946	9.504249	9.508125
O	7.553056	16.085749	13.773125
O	3.288053	11.820755	13.773126
O	7.553056	11.820749	9.508125
O	3.288053	16.085755	9.508126
O	7.553053	9.504243	11.816871
O	3.288056	13.769249	11.816873
O	7.553053	13.769244	16.081872
O	3.288056	9.504249	16.081873
O	7.374445	9.684373	15.901749
O	3.109448	13.949371	15.901743
O	7.374445	13.949373	11.636749
O	3.109448	9.684371	11.636744
O	5.420553	9.684371	13.953254
O	1.155556	13.949373	13.953249
O	5.420553	13.949371	9.688254
O	1.155556	9.684373	9.688249
O	7.374448	11.640626	13.953255
O	3.109445	15.905625	13.953249
O	7.374448	15.905626	9.688255
O	3.109445	11.640625	9.688250
O	5.420556	11.640625	15.901749
O	1.155553	15.905627	15.901743
O	5.420556	15.905625	11.636749
O	1.155553	11.640627	11.636743
Fe	15.993751	7.463255	3.199244
Fe	13.861251	5.331743	3.199243
Fe	11.728751	1.066743	1.065754
Fe	9.596251	3.198255	1.065754
Fe	15.993751	3.198255	7.464243
Fe	13.861251	1.066743	7.464244
Fe	11.728751	5.331743	5.330755
Fe	9.596251	7.463254	5.330754
Fe	11.728751	3.198259	3.199239
Fe	9.596251	1.066739	3.199239
Fe	15.993751	5.331739	1.065759
Fe	13.861251	7.463259	1.065759
Fe	11.728751	7.463259	7.464239
Fe	9.596251	5.331739	7.464239
Fe	15.993751	1.066739	5.330759
Fe	13.861251	3.198259	5.330759
Zn	12.795001	4.264998	8.529999
Zn	8.530001	8.530000	8.529999
Zn	12.795001	-0.000002	4.264999
Zn	8.530001	4.265000	4.264999
Zn	10.662501	6.397499	2.132500
Zn	14.927501	2.132499	2.132498
Zn	10.662501	2.132499	6.397500
Zn	14.927501	6.397499	6.397498
O	9.506946	7.555749	3.286873
O	13.771948	3.290755	3.286871
O	9.506946	3.290749	7.551873
O	13.771948	7.555755	7.551871
O	9.506948	0.974243	5.243127
O	13.771946	5.239249	5.243125
O	9.506948	5.239243	0.978127
O	13.771946	0.974249	0.978125
O	16.083056	7.555749	5.243125
O	11.818053	3.290755	5.243126
O	16.083056	3.290749	0.978125
O	11.818053	7.555755	0.978126
O	16.083053	0.974243	3.286871
O	11.818056	5.239249	3.286873
O	16.083053	5.239244	7.551872
O	11.818056	0.974249	7.551873
O	15.904445	1.154373	7.371749
O	11.639448	5.419371	7.371743
O	15.904445	5.419373	3.106749
O	11.639448	1.154371	3.106744
O	13.950553	1.154371	5.423254
O	9.685556	5.419373	5.423249
O	13.950553	5.419371	1.158254
O	9.685556	1.154373	1.158249
O	15.904448	3.110626	5.423255
O	11.639445	7.375625	5.423249
O	15.904448	7.375626	1.158255
O	11.639445	3.110625	1.158250
O	13.950556	3.110625	7.371749
O	9.685553	7.375627	7.371743
O	13.950556	7.375625	3.106749
O	9.685553	3.110627	3.106743
Fe	15.993751	7.463255	11.729244
Fe	13.861251	5.331743	11.729243
Fe	11.728751	1.066743	9.595754
Fe	9.596251	3.198255	9.595754
Fe	15.993751	3.198255	15.994243
Fe	13.861251	1.066743	15.994244
Fe	11.728751	5.331743	13.860755
Fe	9.596251	7.463254	13.860754
Fe	11.728751	3.198259	11.729239
Fe	9.596251	1.066739	11.729239
Fe	15.993751	5.331739	9.595759
Fe	13.861251	7.463259	9.595759
Fe	11.728751	7.463259	15.994239
Fe	9.596251	5.331739	15.994239
Fe	15.993751	1.066739	13.860759
Fe	13.861251	3.198259	13.860759
Zn	12.795001	4.264998	17.059999
Zn	8.530001	8.530000	17.059999
Zn	12.795001	-0.000002	12.794999
Zn	8.530001	4.265000	12.794999
Zn	10.662501	6.397499	10.662500
Zn	14.927501	2.132499	10.662498
Zn	10.662501	2.132499	14.927500
Zn	14.927501	6.397499	14.927498
O	9.506946	7.555749	11.816873
O	13.771948	3.290755	11.816871
O	9.506946	3.290749	16.081873
O	13.771948	7.555755	16.081871
O	9.506948	0.974243	13.773127
O	13.771946	5.239249	13.773125
O	9.506948	5.239243	9.508127
O	13.771946	0.974249	9.508125
O	16.083056	7.555749	13.773125
O	11.818053	3.290755	13.773126
O	16.083056	3.290749	9.508125
O	11.818053	7.555755	9.508126
O	16.083053	0.974243	11.816871
O	11.818056	5.239249	11.816873
O	16.083053	5.239244	16.081872
O	11.818056	0.974249	16.081873
O	15.904445	1.154373	15.901749
O	11.639448	5.419371	15.901743
O	15.904445	5.419373	11.636749
O	11.639448	1.154371	11.636744
O	13.950553	1.154371	13.953254
O	9.685556	5.419373	13.953249
O	13.950553	5.419371	9.688254
O	9.685556	1.154373	9.688249
O	15.904448	3.110626	13.953255
O	11.639445	7.375625	13.953249
O	15.904448	7.375626	9.688255
O	11.639445	3.110625	9.688250
O	13.950556	3.110625	15.901749
O	9.685553	7.375627	15.901743
O	13.950556	7.375625	11.636749
O	9.685553	3.110627	11.636743
Fe	15.993751	15.993255	3.199244
Fe	13.861251	13.861743	3.199243
Fe	11.728751	9.596743	1.065754
Fe	9.596251	11.728255	1.065754
Fe	15.993751	11.728255	7.464243
Fe	13.861251	9.596743	7.464244
Fe	11.728751	13.861743	5.330755
Fe	9.596251	15.993254	5.330754
Fe	11.728751	11.728259	3.199239
Fe	9.596251	9.596739	3.199239
Fe	15.993751	13.861739	1.065759
Fe	13.861251	15.993259	1.065759
Fe	11.728751	15.993259	7.464239
Fe	9.596251	13.861739	7.464239
Fe	15.993751	9.596739	5.330759
Fe	13.861251	11.728259	5.330759
Zn	12.795001	12.794998	8.529999
Zn	8.530001	17.060000	8.529999
Zn	12.795001	8.529998	4.264999
Zn	8.530001	12.795000	4.264999
Zn	10.662501	14.927499	2.132500
Zn	14.927501	10.662499	2.132498
Zn	10.662501	10.662499	6.397500
Zn	14.927501	14.927499	6.397498
O	9.506946	16.085749	3.286873
O	13.771948	11.820755	3.286871
O	9.506946	11.820749	7.551873
O	13.771948	16.085755	7.551871
O	9.506948	9.504243	5.243127
O	13.771946	13.769249	5.243125
O	9.506948	13.769243	0.978127
O	13.771946	9.504249	0.978125
O	16.083056	16.085749	5.243125
O	11.818053	11.820755	5.243126
O	16.083056	11.820749	0.978125
O	11.818053	16.085755	0.978126
O	16.083053	9.504243	3.286871
O	11.818056	13.769249	3.286873
O	16.083053	13.769244	7.551872
O	11.818056	9.504249	7.551873
O	15.904445	9.684373	7.371749
O	11.639448	13.949371	7.371743
O	15.904445	13.949373	3.106749
O	11.639448	9.684371	3.106744
O	13.950553	9.684371	5.423254
O	9.685556	13.949373	5.423249
O	13.950553	13.949371	1.158254
O	9.685556	9.684373	1.158249
O	15.904448	11.640626	5.423255
O	11.639445	15.905625	5.423249
O	15.904448	15.905626	1.158255
O	11.639445	11.640625	1.158250
O	13.950556	11.640625	7.371749
O	9.685553	15.905627	7.371743
O	13.950556	15.905625	3.106749
O	9.685553	11.640627	3.106743
Fe	15.993751	15.993255	11.729244
Fe	13.861251	13.861743	11.729243
Fe	11.728751	9.596743	9.595754
Fe	9.596251	11.728255	9.595754
Fe	15.993751	11.728255	15.994243
Fe	13.861251	9.596743	15.994244
Fe	11.728751	13.861743	13.860755
Fe	9.596251	15.993254	13.860754
Fe	11.728751	11.728259	11.729239
Fe	9.596251	9.596739	11.729239
Fe	15.993751	13.861739	9.595759
Fe	13.861251	15.993259	9.595759
Fe	11.728751	15.993259	15.994239
Fe	9.596251	13.861739	15.994239
Fe	15.993751	9.596739	13.860759
Fe	13.861251	11.728259	13.860759
Zn	12.795001	12.794998	17.059999
Zn	8.530001	17.060000	17.059999
Zn	12.795001	8.529998	12.794999
Zn	8.530001	12.795000	12.794999
Zn	10.662501	14.927499	10.662500
Zn	14.927501	10.662499	10.662498
Zn	10.662501	10.662499	14.927500
Zn	14.927501	14.927499	14.927498
O	9.506946	16.085749	11.816873
O	13.771948	11.820755	11.816871
O	9.506946	11.820749	16.081873
O	13.771948	16.085755	16.081871
O	9.506948	9.504243	13.773127
O	13.771946	13.769249	13.773125
O	9.506948	13.769243	9.508127
O	13.771946	9.504249	9.508125
O	16.083056	16.085749	13.773125
O	11.818053	11.820755	13.773126
O	16.083056	11.820749	9.508125
O	11.818053	16.085755	9.508126
O	16.083053	9.504243	11.816871
O	11.818056	13.769249	11.816873
O	16.083053	13.769244	16.081872
O	11.818056	9.504249	16.081873
O	15.904445	9.684373	15.901749
O	11.639448	13.949371	15.901743
O	15.904445	13.949373	11.636749
O	11.639448	9.684371	11.636744
O	13.950553	9.684371	13.953254
O	9.685556	13.949373	13.953249
O	13.950553	13.949371	9.688254
O	9.685556	9.684373	9.688249
O	15.904448	11.640626	13.953255
O	11.639445	15.905625	13.953249
O	15.904448	15.905626	9.688255
O	11.639445	11.640625	9.688250
O	13.950556	11.640625	15.901749
O	9.685553	15.905627	15.901743
O	13.950556	15.905625	11.636749
O	9.685553	11.640627	11.636743
