40

Nb	0.000000	0.000000	0.000000
O	2.141951	2.141951	0.000000
O	0.000000	2.141951	2.141951
O	2.141951	0.000000	2.141951
Rb	2.141951	2.141951	2.141951
Nb	0.000000	0.000000	4.283893
O	2.141951	2.141951	4.283893
O	0.000000	2.141951	6.425843
O	2.141951	0.000000	6.425843
Rb	2.141951	2.141951	6.425843
Nb	0.000000	4.283893	0.000000
O	2.141951	6.425843	0.000000
O	0.000000	6.425843	2.141951
O	2.141951	4.283893	2.141951
Rb	2.141951	6.425843	2.141951
Nb	0.000000	4.283893	4.283893
O	2.141951	6.425843	4.283893
O	0.000000	6.425843	6.425843
O	2.141951	4.283893	6.425843
Rb	2.141951	6.425843	6.425843
Nb	4.283893	0.000000	0.000000
O	6.425843	2.141951	0.000000
O	4.283893	2.141951	2.141951
O	6.425843	0.000000	2.141951
Rb	6.425843	2.141951	2.141951
Nb	4.283893	0.000000	4.283893
O	6.425843	2.141951	4.283893
O	4.283893	2.141951	6.425843
O	6.425843	0.000000	6.425843
Rb	6.425843	2.141951	6.425843
Nb	4.283893	4.283893	0.000000
O	6.425843	6.425843	0.000000
O	4.283893	6.425843	2.141951
O	6.425843	4.283893	2.141951
Rb	6.425843	6.425843	2.141951
Nb	4.283893	4.283893	4.283893
O	6.425843	6.425843	4.283893
O	4.283893	6.425843	6.425843
O	6.425843	4.283893	6.425843
Rb	6.425843	6.425843	6.425843
