40

Be	0.000000	0.000000	0.000000
O	0.000000	1.829826	1.829826
O	1.829826	0.000000	1.829826
O	1.829826	1.829826	0.000000
S	1.829826	1.829826	1.829826
Be	0.000000	0.000000	3.659652
O	0.000000	1.829826	5.489478
O	1.829826	0.000000	5.489478
O	1.829826	1.829826	3.659652
S	1.829826	1.829826	5.489478
Be	0.000000	3.659652	0.000000
O	0.000000	5.489478	1.829826
O	1.829826	3.659652	1.829826
O	1.829826	5.489478	0.000000
S	1.829826	5.489478	1.829826
Be	0.000000	3.659652	3.659652
O	0.000000	5.489478	5.489478
O	1.829826	3.659652	5.489478
O	1.829826	5.489478	3.659652
S	1.829826	5.489478	5.489478
Be	3.659652	0.000000	0.000000
O	3.659652	1.829826	1.829826
O	5.489478	0.000000	1.829826
O	5.489478	1.829826	0.000000
S	5.489478	1.829826	1.829826
Be	3.659652	0.000000	3.659652
O	3.659652	1.829826	5.489478
O	5.489478	0.000000	5.489478
O	5.489478	1.829826	3.659652
S	5.489478	1.829826	5.489478
Be	3.659652	3.659652	0.000000
O	3.659652	5.489478	1.829826
O	5.489478	3.659652	1.829826
O	5.489478	5.489478	0.000000
S	5.489478	5.489478	1.829826
Be	3.659652	3.659652	3.659652
O	3.659652	5.489478	5.489478
O	5.489478	3.659652	5.489478
O	5.489478	5.489478	3.659652
S	5.489478	5.489478	5.489478
