40

Be	1.736820	1.736820	1.736820
O	0.000000	1.736820	1.736820
O	1.736820	0.000000	1.736820
O	1.736820	1.736820	0.000000
S	0.000000	0.000000	0.000000
Be	1.736820	1.736820	5.210460
O	0.000000	1.736820	5.210460
O	1.736820	0.000000	5.210460
O	1.736820	1.736820	3.473640
S	0.000000	0.000000	3.473640
Be	1.736820	5.210460	1.736820
O	0.000000	5.210460	1.736820
O	1.736820	3.473640	1.736820
O	1.736820	5.210460	0.000000
S	0.000000	3.473640	0.000000
Be	1.736820	5.210460	5.210460
O	0.000000	5.210460	5.210460
O	1.736820	3.473640	5.210460
O	1.736820	5.210460	3.473640
S	0.000000	3.473640	3.473640
Be	5.210460	1.736820	1.736820
O	3.473640	1.736820	1.736820
O	5.210460	0.000000	1.736820
O	5.210460	1.736820	0.000000
S	3.473640	0.000000	0.000000
Be	5.210460	1.736820	5.210460
O	3.473640	1.736820	5.210460
O	5.210460	0.000000	5.210460
O	5.210460	1.736820	3.473640
S	3.473640	0.000000	3.473640
Be	5.210460	5.210460	1.736820
O	3.473640	5.210460	1.736820
O	5.210460	3.473640	1.736820
O	5.210460	5.210460	0.000000
S	3.473640	3.473640	0.000000
Be	5.210460	5.210460	5.210460
O	3.473640	5.210460	5.210460
O	5.210460	3.473640	5.210460
O	5.210460	5.210460	3.473640
S	3.473640	3.473640	3.473640
