40

Be	1.736521	1.736521	1.736521
O	0.000000	1.736521	1.736521
O	1.736521	0.000000	1.736521
O	1.736521	1.736521	0.000000
S	0.000000	0.000000	0.000000
Be	1.736521	1.736521	5.209564
O	0.000000	1.736521	5.209564
O	1.736521	0.000000	5.209564
O	1.736521	1.736521	3.473042
S	0.000000	0.000000	3.473042
Be	1.736521	5.209564	1.736521
O	0.000000	5.209564	1.736521
O	1.736521	3.473042	1.736521
O	1.736521	5.209564	0.000000
S	0.000000	3.473042	0.000000
Be	1.736521	5.209564	5.209564
O	0.000000	5.209564	5.209564
O	1.736521	3.473042	5.209564
O	1.736521	5.209564	3.473042
S	0.000000	3.473042	3.473042
Be	5.209564	1.736521	1.736521
O	3.473042	1.736521	1.736521
O	5.209564	0.000000	1.736521
O	5.209564	1.736521	0.000000
S	3.473042	0.000000	0.000000
Be	5.209564	1.736521	5.209564
O	3.473042	1.736521	5.209564
O	5.209564	0.000000	5.209564
O	5.209564	1.736521	3.473042
S	3.473042	0.000000	3.473042
Be	5.209564	5.209564	1.736521
O	3.473042	5.209564	1.736521
O	5.209564	3.473042	1.736521
O	5.209564	5.209564	0.000000
S	3.473042	3.473042	0.000000
Be	5.209564	5.209564	5.209564
O	3.473042	5.209564	5.209564
O	5.209564	3.473042	5.209564
O	5.209564	5.209564	3.473042
S	3.473042	3.473042	3.473042
