40

Er	0.000000	0.000000	0.000000
Na	1.951290	1.951290	1.951290
O	1.951290	0.000000	1.951290
O	0.000000	1.951290	1.951290
O	1.951290	1.951290	0.000000
Er	0.000000	0.000000	3.902565
Na	1.951290	1.951290	5.853855
O	1.951290	0.000000	5.853855
O	0.000000	1.951290	5.853855
O	1.951290	1.951290	3.902565
Er	0.000000	3.902565	0.000000
Na	1.951290	5.853855	1.951290
O	1.951290	3.902565	1.951290
O	0.000000	5.853855	1.951290
O	1.951290	5.853855	0.000000
Er	0.000000	3.902565	3.902565
Na	1.951290	5.853855	5.853855
O	1.951290	3.902565	5.853855
O	0.000000	5.853855	5.853855
O	1.951290	5.853855	3.902565
Er	3.902565	0.000000	0.000000
Na	5.853855	1.951290	1.951290
O	5.853855	0.000000	1.951290
O	3.902565	1.951290	1.951290
O	5.853855	1.951290	0.000000
Er	3.902565	0.000000	3.902565
Na	5.853855	1.951290	5.853855
O	5.853855	0.000000	5.853855
O	3.902565	1.951290	5.853855
O	5.853855	1.951290	3.902565
Er	3.902565	3.902565	0.000000
Na	5.853855	5.853855	1.951290
O	5.853855	3.902565	1.951290
O	3.902565	5.853855	1.951290
O	5.853855	5.853855	0.000000
Er	3.902565	3.902565	3.902565
Na	5.853855	5.853855	5.853855
O	5.853855	3.902565	5.853855
O	3.902565	5.853855	5.853855
O	5.853855	5.853855	3.902565
