112

Al	0.000000	0.000000	0.000000
Al	2.081258	-2.081493	-2.081493
Mg	-1.040629	-1.040746	-3.122239
Mg	3.121886	1.040746	-1.040746
Mg	5.203144	-1.040746	-1.040746
Mg	1.040629	1.040746	-3.122239
O	3.123773	-1.038511	-1.038511
O	-1.038742	1.038511	-3.124474
O	1.038742	-1.038511	-3.124474
O	1.042515	1.042981	-1.042981
O	5.201258	1.038511	-1.038511
O	1.042515	3.120004	-3.120004
O	3.120000	3.120004	-1.042981
O	3.120000	1.042981	-3.120004
Al	4.162515	4.162985	0.000000
Al	6.243773	2.081493	-2.081493
Mg	3.121886	3.122239	-3.122239
Mg	7.284401	5.203732	-1.040746
Mg	9.365659	3.122239	-1.040746
Mg	5.203144	5.203732	-3.122239
O	7.286288	3.124474	-1.038511
O	3.123773	5.201497	-3.124474
O	5.201258	3.124474	-3.124474
O	5.205030	5.205967	-1.042981
O	9.363773	5.201497	-1.038511
O	5.205030	7.282989	-3.120004
O	7.282515	7.282989	-1.042981
O	7.282515	5.205967	-3.120004
Al	-4.162515	0.000000	-4.162985
Al	-2.081258	-2.081493	-6.244478
Mg	-5.203144	-1.040746	-7.285225
Mg	-1.040629	1.040746	-5.203732
Mg	1.040629	-1.040746	-5.203732
Mg	-3.121886	1.040746	-7.285225
O	-1.038742	-1.038511	-5.201497
O	-5.201258	1.038511	-7.287460
O	-3.123773	-1.038511	-7.287460
O	-3.120000	1.042981	-5.205967
O	1.038742	1.038511	-5.201497
O	-3.120000	3.120004	-7.282989
O	-1.042515	3.120004	-5.205967
O	-1.042515	1.042981	-7.282989
Al	0.000000	4.162985	-4.162985
Al	2.081258	2.081493	-6.244478
Mg	-1.040629	3.122239	-7.285225
Mg	3.121886	5.203732	-5.203732
Mg	5.203144	3.122239	-5.203732
Mg	1.040629	5.203732	-7.285225
O	3.123773	3.124474	-5.201497
O	-1.038742	5.201497	-7.287460
O	1.038742	3.124474	-7.287460
O	1.042515	5.205967	-5.205967
O	5.201258	5.201497	-5.201497
O	1.042515	7.282989	-7.282989
O	3.120000	7.282989	-5.205967
O	3.120000	5.205967	-7.282989
Al	4.162515	-4.162985	0.000000
Al	6.243773	-6.244478	-2.081493
Mg	3.121886	-5.203732	-3.122239
Mg	7.284401	-3.122239	-1.040746
Mg	9.365659	-5.203732	-1.040746
Mg	5.203144	-3.122239	-3.122239
O	7.286288	-5.201497	-1.038511
O	3.123773	-3.124474	-3.124474
O	5.201258	-5.201497	-3.124474
O	5.205030	-3.120004	-1.042981
O	9.363773	-3.124474	-1.038511
O	5.205030	-1.042981	-3.120004
O	7.282515	-1.042981	-1.042981
O	7.282515	-3.120004	-3.120004
Al	8.325030	0.000000	0.000000
Al	10.406288	-2.081493	-2.081493
Mg	7.284401	-1.040746	-3.122239
Mg	11.446917	1.040746	-1.040746
Mg	13.528174	-1.040746	-1.040746
Mg	9.365659	1.040746	-3.122239
O	11.448803	-1.038511	-1.038511
O	7.286288	1.038511	-3.124474
O	9.363773	-1.038511	-3.124474
O	9.367545	1.042981	-1.042981
O	13.526288	1.038511	-1.038511
O	9.367545	3.120004	-3.120004
O	11.445030	3.120004	-1.042981
O	11.445030	1.042981	-3.120004
Al	0.000000	-4.162985	-4.162985
Al	2.081258	-6.244478	-6.244478
Mg	-1.040629	-5.203732	-7.285225
Mg	3.121886	-3.122239	-5.203732
Mg	5.203144	-5.203732	-5.203732
Mg	1.040629	-3.122239	-7.285225
O	3.123773	-5.201497	-5.201497
O	-1.038742	-3.124474	-7.287460
O	1.038742	-5.201497	-7.287460
O	1.042515	-3.120004	-5.205967
O	5.201258	-3.124474	-5.201497
O	1.042515	-1.042981	-7.282989
O	3.120000	-1.042981	-5.205967
O	3.120000	-3.120004	-7.282989
Al	4.162515	0.000000	-4.162985
Al	6.243773	-2.081493	-6.244478
Mg	3.121886	-1.040746	-7.285225
Mg	7.284401	1.040746	-5.203732
Mg	9.365659	-1.040746	-5.203732
Mg	5.203144	1.040746	-7.285225
O	7.286288	-1.038511	-5.201497
O	3.123773	1.038511	-7.287460
O	5.201258	-1.038511	-7.287460
O	5.205030	1.042981	-5.205967
O	9.363773	1.038511	-5.201497
O	5.205030	3.120004	-7.282989
O	7.282515	3.120004	-5.205967
O	7.282515	1.042981	-7.282989
