72

Se	0.000000	0.000000	0.000000
Br	-4.903004	-4.903004	-7.262908
Br	-4.903004	-2.543099	-4.903004
Br	-2.543099	-4.903004	-4.903004
Br	-4.903004	-4.903004	-2.543099
Br	-4.903004	-7.262908	-4.903004
Br	-7.262908	-4.903004	-4.903004
O	-7.354506	-7.354506	-7.354506
O	-2.451502	-2.451502	-2.451502
Se	0.000000	-4.903004	-4.903004
Br	-4.903004	-9.806008	-12.165912
Br	-4.903004	-7.446103	-9.806008
Br	-2.543099	-9.806008	-9.806008
Br	-4.903004	-9.806008	-7.446103
Br	-4.903004	-12.165912	-9.806008
Br	-7.262908	-9.806008	-9.806008
O	-7.354506	-12.257510	-12.257510
O	-2.451502	-7.354506	-7.354506
Se	-4.903004	0.000000	-4.903004
Br	-9.806008	-4.903004	-12.165912
Br	-9.806008	-2.543099	-9.806008
Br	-7.446103	-4.903004	-9.806008
Br	-9.806008	-4.903004	-7.446103
Br	-9.806008	-7.262908	-9.806008
Br	-12.165912	-4.903004	-9.806008
O	-12.257510	-7.354506	-12.257510
O	-7.354506	-2.451502	-7.354506
Se	-4.903004	-4.903004	-9.806008
Br	-9.806008	-9.806008	-17.068916
Br	-9.806008	-7.446103	-14.709012
Br	-7.446103	-9.806008	-14.709012
Br	-9.806008	-9.806008	-12.349107
Br	-9.806008	-12.165912	-14.709012
Br	-12.165912	-9.806008	-14.709012
O	-12.257510	-12.257510	-17.160514
O	-7.354506	-7.354506	-12.257510
Se	-4.903004	-4.903004	0.000000
Br	-9.806008	-9.806008	-7.262908
Br	-9.806008	-7.446103	-4.903004
Br	-7.446103	-9.806008	-4.903004
Br	-9.806008	-9.806008	-2.543099
Br	-9.806008	-12.165912	-4.903004
Br	-12.165912	-9.806008	-4.903004
O	-12.257510	-12.257510	-7.354506
O	-7.354506	-7.354506	-2.451502
Se	-4.903004	-9.806008	-4.903004
Br	-9.806008	-14.709012	-12.165912
Br	-9.806008	-12.349107	-9.806008
Br	-7.446103	-14.709012	-9.806008
Br	-9.806008	-14.709012	-7.446103
Br	-9.806008	-17.068916	-9.806008
Br	-12.165912	-14.709012	-9.806008
O	-12.257510	-17.160514	-12.257510
O	-7.354506	-12.257510	-7.354506
Se	-9.806008	-4.903004	-4.903004
Br	-14.709012	-9.806008	-12.165912
Br	-14.709012	-7.446103	-9.806008
Br	-12.349107	-9.806008	-9.806008
Br	-14.709012	-9.806008	-7.446103
Br	-14.709012	-12.165912	-9.806008
Br	-17.068916	-9.806008	-9.806008
O	-17.160514	-12.257510	-12.257510
O	-12.257510	-7.354506	-7.354506
Se	-9.806008	-9.806008	-9.806008
Br	-14.709012	-14.709012	-17.068916
Br	-14.709012	-12.349107	-14.709012
Br	-12.349107	-14.709012	-14.709012
Br	-14.709012	-14.709012	-12.349107
Br	-14.709012	-17.068916	-14.709012
Br	-17.068916	-14.709012	-14.709012
O	-17.160514	-17.160514	-17.160514
O	-12.257510	-12.257510	-12.257510
