40

O	2.104441	2.104441	0.000000
O	2.104441	0.000000	2.104441
O	0.000000	2.104441	2.104441
Tm	2.104441	2.104441	2.104441
W	0.000000	0.000000	0.000000
O	2.104441	2.104441	4.208881
O	2.104441	0.000000	6.313322
O	0.000000	2.104441	6.313322
Tm	2.104441	2.104441	6.313322
W	0.000000	0.000000	4.208881
O	2.104441	6.313322	0.000000
O	2.104441	4.208881	2.104441
O	0.000000	6.313322	2.104441
Tm	2.104441	6.313322	2.104441
W	0.000000	4.208881	0.000000
O	2.104441	6.313322	4.208881
O	2.104441	4.208881	6.313322
O	0.000000	6.313322	6.313322
Tm	2.104441	6.313322	6.313322
W	0.000000	4.208881	4.208881
O	6.313322	2.104441	0.000000
O	6.313322	0.000000	2.104441
O	4.208881	2.104441	2.104441
Tm	6.313322	2.104441	2.104441
W	4.208881	0.000000	0.000000
O	6.313322	2.104441	4.208881
O	6.313322	0.000000	6.313322
O	4.208881	2.104441	6.313322
Tm	6.313322	2.104441	6.313322
W	4.208881	0.000000	4.208881
O	6.313322	6.313322	0.000000
O	6.313322	4.208881	2.104441
O	4.208881	6.313322	2.104441
Tm	6.313322	6.313322	2.104441
W	4.208881	4.208881	0.000000
O	6.313322	6.313322	4.208881
O	6.313322	4.208881	6.313322
O	4.208881	6.313322	6.313322
Tm	6.313322	6.313322	6.313322
W	4.208881	4.208881	4.208881
