112

B	0.000000	0.000000	0.000000
B	2.146075	-2.146214	-2.146214
Na	-1.073037	-1.073107	-3.219321
Na	3.219112	1.073107	-1.073107
Na	5.365187	-1.073107	-1.073107
Na	1.073037	1.073107	-3.219321
O	2.984934	-1.307053	-1.307053
O	-1.307215	1.307053	-2.985376
O	1.307215	-1.307053	-2.985376
O	0.838859	0.839161	-0.839161
O	5.599364	1.307053	-1.307053
O	0.838859	3.453267	-3.453267
O	3.453290	3.453267	-0.839161
O	3.453290	0.839161	-3.453267
B	4.292149	4.292428	0.000000
B	6.438224	2.146214	-2.146214
Na	3.219112	3.219321	-3.219321
Na	7.511261	5.365535	-1.073107
Na	9.657336	3.219321	-1.073107
Na	5.365187	5.365535	-3.219321
O	7.277083	2.985376	-1.307053
O	2.984934	5.599481	-2.985376
O	5.599364	2.985376	-2.985376
O	5.131009	5.131590	-0.839161
O	9.891514	5.599481	-1.307053
O	5.131009	7.745695	-3.453267
O	7.745439	7.745695	-0.839161
O	7.745439	5.131590	-3.453267
B	-4.292149	0.000000	-4.292428
B	-2.146075	-2.146214	-6.438642
Na	-5.365187	-1.073107	-7.511750
Na	-1.073037	1.073107	-5.365535
Na	1.073037	-1.073107	-5.365535
Na	-3.219112	1.073107	-7.511750
O	-1.307215	-1.307053	-5.599481
O	-5.599364	1.307053	-7.277804
O	-2.984934	-1.307053	-7.277804
O	-3.453290	0.839161	-5.131590
O	1.307215	1.307053	-5.599481
O	-3.453290	3.453267	-7.745695
O	-0.838859	3.453267	-5.131590
O	-0.838859	0.839161	-7.745695
B	0.000000	4.292428	-4.292428
B	2.146075	2.146214	-6.438642
Na	-1.073037	3.219321	-7.511750
Na	3.219112	5.365535	-5.365535
Na	5.365187	3.219321	-5.365535
Na	1.073037	5.365535	-7.511750
O	2.984934	2.985376	-5.599481
O	-1.307215	5.599481	-7.277804
O	1.307215	2.985376	-7.277804
O	0.838859	5.131590	-5.131590
O	5.599364	5.599481	-5.599481
O	0.838859	7.745695	-7.745695
O	3.453290	7.745695	-5.131590
O	3.453290	5.131590	-7.745695
B	4.292149	-4.292428	0.000000
B	6.438224	-6.438642	-2.146214
Na	3.219112	-5.365535	-3.219321
Na	7.511261	-3.219321	-1.073107
Na	9.657336	-5.365535	-1.073107
Na	5.365187	-3.219321	-3.219321
O	7.277083	-5.599481	-1.307053
O	2.984934	-2.985376	-2.985376
O	5.599364	-5.599481	-2.985376
O	5.131009	-3.453267	-0.839161
O	9.891514	-2.985376	-1.307053
O	5.131009	-0.839161	-3.453267
O	7.745439	-0.839161	-0.839161
O	7.745439	-3.453267	-3.453267
B	8.584298	0.000000	0.000000
B	10.730373	-2.146214	-2.146214
Na	7.511261	-1.073107	-3.219321
Na	11.803410	1.073107	-1.073107
Na	13.949485	-1.073107	-1.073107
Na	9.657336	1.073107	-3.219321
O	11.569232	-1.307053	-1.307053
O	7.277083	1.307053	-2.985376
O	9.891514	-1.307053	-2.985376
O	9.423158	0.839161	-0.839161
O	14.183663	1.307053	-1.307053
O	9.423158	3.453267	-3.453267
O	12.037588	3.453267	-0.839161
O	12.037588	0.839161	-3.453267
B	0.000000	-4.292428	-4.292428
B	2.146075	-6.438642	-6.438642
Na	-1.073037	-5.365535	-7.511750
Na	3.219112	-3.219321	-5.365535
Na	5.365187	-5.365535	-5.365535
Na	1.073037	-3.219321	-7.511750
O	2.984934	-5.599481	-5.599481
O	-1.307215	-2.985376	-7.277804
O	1.307215	-5.599481	-7.277804
O	0.838859	-3.453267	-5.131590
O	5.599364	-2.985376	-5.599481
O	0.838859	-0.839161	-7.745695
O	3.453290	-0.839161	-5.131590
O	3.453290	-3.453267	-7.745695
B	4.292149	0.000000	-4.292428
B	6.438224	-2.146214	-6.438642
Na	3.219112	-1.073107	-7.511750
Na	7.511261	1.073107	-5.365535
Na	9.657336	-1.073107	-5.365535
Na	5.365187	1.073107	-7.511750
O	7.277083	-1.307053	-5.599481
O	2.984934	1.307053	-7.277804
O	5.599364	-1.307053	-7.277804
O	5.131009	0.839161	-5.131590
O	9.891514	1.307053	-5.599481
O	5.131009	3.453267	-7.745695
O	7.745439	3.453267	-5.131590
O	7.745439	0.839161	-7.745695
