112

B	0.000000	0.000000	0.000000
B	2.095675	-2.095746	-2.095746
Na	-1.047843	-1.047873	-3.143618
Na	3.143508	1.047873	-1.047873
Na	5.239193	-1.047873	-1.047873
Na	1.047843	1.047873	-3.143618
O	0.834099	0.834282	-0.834282
O	2.929764	-1.261454	-1.261454
O	-1.261586	1.261454	-2.930037
O	1.261586	-1.261454	-2.930037
O	0.834099	3.357209	-3.357209
O	3.357252	3.357209	-0.834282
O	3.357252	0.834282	-3.357209
O	5.452927	1.261454	-1.261454
B	4.191351	4.191491	0.000000
B	6.287026	2.095745	-2.095746
Na	3.143508	3.143618	-3.143618
Na	7.334859	5.239363	-1.047873
Na	9.430544	3.143618	-1.047873
Na	5.239193	5.239364	-3.143618
O	5.025450	5.025772	-0.834282
O	7.121115	2.930037	-1.261454
O	2.929764	5.452945	-2.930037
O	5.452937	2.930037	-2.930037
O	5.025450	7.548700	-3.357209
O	7.548602	7.548700	-0.834282
O	7.548602	5.025772	-3.357209
O	9.644277	5.452945	-1.261454
B	-4.191351	0.000000	-4.191491
B	-2.095675	-2.095746	-6.287236
Na	-5.239193	-1.047873	-7.335109
Na	-1.047843	1.047873	-5.239363
Na	1.047843	-1.047873	-5.239363
Na	-3.143508	1.047873	-7.335109
O	-3.357252	0.834282	-5.025772
O	-1.261586	-1.261454	-5.452945
O	-5.452937	1.261454	-7.121528
O	-2.929764	-1.261454	-7.121528
O	-3.357252	3.357209	-7.548700
O	-0.834099	3.357209	-5.025772
O	-0.834099	0.834282	-7.548700
O	1.261576	1.261454	-5.452945
B	0.000000	4.191491	-4.191491
B	2.095675	2.095745	-6.287236
Na	-1.047843	3.143618	-7.335109
Na	3.143508	5.239363	-5.239363
Na	5.239193	3.143618	-5.239363
Na	1.047843	5.239364	-7.335109
O	0.834099	5.025772	-5.025772
O	2.929764	2.930037	-5.452945
O	-1.261586	5.452945	-7.121528
O	1.261586	2.930037	-7.121528
O	0.834099	7.548700	-7.548700
O	3.357252	7.548700	-5.025772
O	3.357252	5.025772	-7.548700
O	5.452927	5.452945	-5.452945
B	4.191351	-4.191491	0.000000
B	6.287026	-6.287236	-2.095746
Na	3.143508	-5.239363	-3.143618
Na	7.334859	-3.143618	-1.047873
Na	9.430544	-5.239364	-1.047873
Na	5.239193	-3.143618	-3.143618
O	5.025450	-3.357209	-0.834282
O	7.121115	-5.452945	-1.261454
O	2.929764	-2.930037	-2.930037
O	5.452937	-5.452945	-2.930037
O	5.025450	-0.834281	-3.357209
O	7.548602	-0.834281	-0.834282
O	7.548602	-3.357209	-3.357209
O	9.644277	-2.930037	-1.261454
B	8.382701	0.000000	0.000000
B	10.478377	-2.095746	-2.095746
Na	7.334859	-1.047873	-3.143618
Na	11.526209	1.047873	-1.047873
Na	13.621894	-1.047873	-1.047873
Na	9.430544	1.047873	-3.143618
O	9.216800	0.834282	-0.834282
O	11.312466	-1.261454	-1.261454
O	7.121115	1.261454	-2.930037
O	9.644287	-1.261454	-2.930037
O	9.216800	3.357209	-3.357209
O	11.739953	3.357209	-0.834282
O	11.739953	0.834282	-3.357209
O	13.835628	1.261454	-1.261454
B	0.000000	-4.191491	-4.191491
B	2.095675	-6.287236	-6.287236
Na	-1.047843	-5.239363	-7.335109
Na	3.143508	-3.143618	-5.239363
Na	5.239193	-5.239364	-5.239363
Na	1.047843	-3.143618	-7.335109
O	0.834099	-3.357209	-5.025772
O	2.929764	-5.452945	-5.452945
O	-1.261586	-2.930037	-7.121528
O	1.261586	-5.452945	-7.121528
O	0.834099	-0.834281	-7.548700
O	3.357252	-0.834281	-5.025772
O	3.357252	-3.357209	-7.548700
O	5.452927	-2.930037	-5.452945
B	4.191351	0.000000	-4.191491
B	6.287026	-2.095746	-6.287236
Na	3.143508	-1.047873	-7.335109
Na	7.334859	1.047873	-5.239363
Na	9.430544	-1.047873	-5.239363
Na	5.239193	1.047873	-7.335109
O	5.025450	0.834282	-5.025772
O	7.121115	-1.261454	-5.452945
O	2.929764	1.261454	-7.121528
O	5.452937	-1.261454	-7.121528
O	5.025450	3.357209	-7.548700
O	7.548602	3.357209	-5.025772
O	7.548602	0.834282	-7.548700
O	9.644277	1.261454	-5.452945
