40

O	0.000000	2.042459	2.042459
O	2.042459	0.000000	2.042459
O	2.042459	2.042459	0.000000
Sb	0.000000	0.000000	0.000000
Ta	2.042459	2.042459	2.042459
O	0.000000	2.042459	6.127377
O	2.042459	0.000000	6.127377
O	2.042459	2.042459	4.084918
Sb	0.000000	0.000000	4.084918
Ta	2.042459	2.042459	6.127377
O	0.000000	6.127377	2.042459
O	2.042459	4.084918	2.042459
O	2.042459	6.127377	0.000000
Sb	0.000000	4.084918	0.000000
Ta	2.042459	6.127377	2.042459
O	0.000000	6.127377	6.127377
O	2.042459	4.084918	6.127377
O	2.042459	6.127377	4.084918
Sb	0.000000	4.084918	4.084918
Ta	2.042459	6.127377	6.127377
O	4.084918	2.042459	2.042459
O	6.127377	0.000000	2.042459
O	6.127377	2.042459	0.000000
Sb	4.084918	0.000000	0.000000
Ta	6.127377	2.042459	2.042459
O	4.084918	2.042459	6.127377
O	6.127377	0.000000	6.127377
O	6.127377	2.042459	4.084918
Sb	4.084918	0.000000	4.084918
Ta	6.127377	2.042459	6.127377
O	4.084918	6.127377	2.042459
O	6.127377	4.084918	2.042459
O	6.127377	6.127377	0.000000
Sb	4.084918	4.084918	0.000000
Ta	6.127377	6.127377	2.042459
O	4.084918	6.127377	6.127377
O	6.127377	4.084918	6.127377
O	6.127377	6.127377	4.084918
Sb	4.084918	4.084918	4.084918
Ta	6.127377	6.127377	6.127377
