40

Hf	2.066299	2.066299	2.066299
O	2.066299	2.066299	0.000000
O	2.066299	0.000000	2.066299
O	0.000000	2.066299	2.066299
Pu	0.000000	0.000000	0.000000
Hf	2.066299	2.066299	6.198896
O	2.066299	2.066299	4.132597
O	2.066299	0.000000	6.198896
O	0.000000	2.066299	6.198896
Pu	0.000000	0.000000	4.132597
Hf	2.066299	6.198896	2.066299
O	2.066299	6.198896	0.000000
O	2.066299	4.132597	2.066299
O	0.000000	6.198896	2.066299
Pu	0.000000	4.132597	0.000000
Hf	2.066299	6.198896	6.198896
O	2.066299	6.198896	4.132597
O	2.066299	4.132597	6.198896
O	0.000000	6.198896	6.198896
Pu	0.000000	4.132597	4.132597
Hf	6.198896	2.066299	2.066299
O	6.198896	2.066299	0.000000
O	6.198896	0.000000	2.066299
O	4.132597	2.066299	2.066299
Pu	4.132597	0.000000	0.000000
Hf	6.198896	2.066299	6.198896
O	6.198896	2.066299	4.132597
O	6.198896	0.000000	6.198896
O	4.132597	2.066299	6.198896
Pu	4.132597	0.000000	4.132597
Hf	6.198896	6.198896	2.066299
O	6.198896	6.198896	0.000000
O	6.198896	4.132597	2.066299
O	4.132597	6.198896	2.066299
Pu	4.132597	4.132597	0.000000
Hf	6.198896	6.198896	6.198896
O	6.198896	6.198896	4.132597
O	6.198896	4.132597	6.198896
O	4.132597	6.198896	6.198896
Pu	4.132597	4.132597	4.132597
