40

O	0.000000	2.107465	2.107465
O	2.107465	0.000000	2.107465
O	2.107465	2.107465	0.000000
Sb	2.107465	2.107465	2.107465
Sr	0.000000	0.000000	0.000000
O	0.000000	2.107465	6.322396
O	2.107465	0.000000	6.322396
O	2.107465	2.107465	4.214931
Sb	2.107465	2.107465	6.322396
Sr	0.000000	0.000000	4.214931
O	0.000000	6.322396	2.107465
O	2.107465	4.214931	2.107465
O	2.107465	6.322396	0.000000
Sb	2.107465	6.322396	2.107465
Sr	0.000000	4.214931	0.000000
O	0.000000	6.322396	6.322396
O	2.107465	4.214931	6.322396
O	2.107465	6.322396	4.214931
Sb	2.107465	6.322396	6.322396
Sr	0.000000	4.214931	4.214931
O	4.214931	2.107465	2.107465
O	6.322396	0.000000	2.107465
O	6.322396	2.107465	0.000000
Sb	6.322396	2.107465	2.107465
Sr	4.214931	0.000000	0.000000
O	4.214931	2.107465	6.322396
O	6.322396	0.000000	6.322396
O	6.322396	2.107465	4.214931
Sb	6.322396	2.107465	6.322396
Sr	4.214931	0.000000	4.214931
O	4.214931	6.322396	2.107465
O	6.322396	4.214931	2.107465
O	6.322396	6.322396	0.000000
Sb	6.322396	6.322396	2.107465
Sr	4.214931	4.214931	0.000000
O	4.214931	6.322396	6.322396
O	6.322396	4.214931	6.322396
O	6.322396	6.322396	4.214931
Sb	6.322396	6.322396	6.322396
Sr	4.214931	4.214931	4.214931
