40

Np	2.190603	2.190603	2.190603
O	2.190603	2.190603	0.000000
O	0.000000	2.190603	2.190603
O	2.190603	0.000000	2.190603
Tm	0.000000	0.000000	0.000000
Np	2.190603	2.190603	6.571809
O	2.190603	2.190603	4.381206
O	0.000000	2.190603	6.571809
O	2.190603	0.000000	6.571809
Tm	0.000000	0.000000	4.381206
Np	2.190603	6.571809	2.190603
O	2.190603	6.571809	0.000000
O	0.000000	6.571809	2.190603
O	2.190603	4.381206	2.190603
Tm	0.000000	4.381206	0.000000
Np	2.190603	6.571809	6.571809
O	2.190603	6.571809	4.381206
O	0.000000	6.571809	6.571809
O	2.190603	4.381206	6.571809
Tm	0.000000	4.381206	4.381206
Np	6.571809	2.190603	2.190603
O	6.571809	2.190603	0.000000
O	4.381206	2.190603	2.190603
O	6.571809	0.000000	2.190603
Tm	4.381206	0.000000	0.000000
Np	6.571809	2.190603	6.571809
O	6.571809	2.190603	4.381206
O	4.381206	2.190603	6.571809
O	6.571809	0.000000	6.571809
Tm	4.381206	0.000000	4.381206
Np	6.571809	6.571809	2.190603
O	6.571809	6.571809	0.000000
O	4.381206	6.571809	2.190603
O	6.571809	4.381206	2.190603
Tm	4.381206	4.381206	0.000000
Np	6.571809	6.571809	6.571809
O	6.571809	6.571809	4.381206
O	4.381206	6.571809	6.571809
O	6.571809	4.381206	6.571809
Tm	4.381206	4.381206	4.381206
