40

Mo	0.000000	0.000000	0.000000
O	0.000000	2.046737	2.046737
O	2.046737	0.000000	2.046737
O	2.046737	2.046737	0.000000
Sb	2.046737	2.046737	2.046737
Mo	0.000000	0.000000	4.093475
O	0.000000	2.046737	6.140212
O	2.046737	0.000000	6.140212
O	2.046737	2.046737	4.093475
Sb	2.046737	2.046737	6.140212
Mo	0.000000	4.093475	0.000000
O	0.000000	6.140212	2.046737
O	2.046737	4.093475	2.046737
O	2.046737	6.140212	0.000000
Sb	2.046737	6.140212	2.046737
Mo	0.000000	4.093475	4.093475
O	0.000000	6.140212	6.140212
O	2.046737	4.093475	6.140212
O	2.046737	6.140212	4.093475
Sb	2.046737	6.140212	6.140212
Mo	4.093475	0.000000	0.000000
O	4.093475	2.046737	2.046737
O	6.140212	0.000000	2.046737
O	6.140212	2.046737	0.000000
Sb	6.140212	2.046737	2.046737
Mo	4.093475	0.000000	4.093475
O	4.093475	2.046737	6.140212
O	6.140212	0.000000	6.140212
O	6.140212	2.046737	4.093475
Sb	6.140212	2.046737	6.140212
Mo	4.093475	4.093475	0.000000
O	4.093475	6.140212	2.046737
O	6.140212	4.093475	2.046737
O	6.140212	6.140212	0.000000
Sb	6.140212	6.140212	2.046737
Mo	4.093475	4.093475	4.093475
O	4.093475	6.140212	6.140212
O	6.140212	4.093475	6.140212
O	6.140212	6.140212	4.093475
Sb	6.140212	6.140212	6.140212
