40

Bi	2.109394	2.109394	2.109394
O	0.000000	2.109394	2.109394
O	2.109394	0.000000	2.109394
O	2.109394	2.109394	0.000000
Pd	0.000000	0.000000	0.000000
Bi	2.109394	2.109394	6.328182
O	0.000000	2.109394	6.328182
O	2.109394	0.000000	6.328182
O	2.109394	2.109394	4.218788
Pd	0.000000	0.000000	4.218788
Bi	2.109394	6.328182	2.109394
O	0.000000	6.328182	2.109394
O	2.109394	4.218788	2.109394
O	2.109394	6.328182	0.000000
Pd	0.000000	4.218788	0.000000
Bi	2.109394	6.328182	6.328182
O	0.000000	6.328182	6.328182
O	2.109394	4.218788	6.328182
O	2.109394	6.328182	4.218788
Pd	0.000000	4.218788	4.218788
Bi	6.328182	2.109394	2.109394
O	4.218788	2.109394	2.109394
O	6.328182	0.000000	2.109394
O	6.328182	2.109394	0.000000
Pd	4.218788	0.000000	0.000000
Bi	6.328182	2.109394	6.328182
O	4.218788	2.109394	6.328182
O	6.328182	0.000000	6.328182
O	6.328182	2.109394	4.218788
Pd	4.218788	0.000000	4.218788
Bi	6.328182	6.328182	2.109394
O	4.218788	6.328182	2.109394
O	6.328182	4.218788	2.109394
O	6.328182	6.328182	0.000000
Pd	4.218788	4.218788	0.000000
Bi	6.328182	6.328182	6.328182
O	4.218788	6.328182	6.328182
O	6.328182	4.218788	6.328182
O	6.328182	6.328182	4.218788
Pd	4.218788	4.218788	4.218788
