112

Ho	0.000000	0.000000	0.000000
Ho	2.413274	-2.412478	-2.412478
Na	-1.206637	-1.206239	-3.618716
Na	3.619910	1.206239	-1.206239
Na	6.033184	-1.206239	-1.206239
Na	1.206637	1.206239	-3.618716
O	3.639598	-1.186394	-1.186394
O	-1.186949	1.186394	-3.638561
O	1.186949	-1.186394	-3.638561
O	1.226324	1.226083	-1.226083
O	6.013496	1.186394	-1.186394
O	1.226325	3.598872	-3.598872
O	3.600223	3.598872	-1.226083
O	3.600223	1.226083	-3.598872
Ho	4.826547	4.824955	0.000000
Ho	7.239821	2.412478	-2.412478
Na	3.619910	3.618716	-3.618716
Na	8.446457	6.031194	-1.206239
Na	10.859731	3.618716	-1.206239
Na	6.033184	6.031194	-3.618716
O	8.466145	3.638561	-1.186394
O	3.639598	6.011349	-3.638561
O	6.013496	3.638561	-3.638561
O	6.052872	6.051039	-1.226083
O	10.840043	6.011349	-1.186394
O	6.052872	8.423827	-3.598872
O	8.426770	8.423827	-1.226083
O	8.426770	6.051039	-3.598872
Ho	-4.826547	0.000000	-4.824955
Ho	-2.413274	-2.412478	-7.237433
Na	-6.033184	-1.206239	-8.443671
Na	-1.206637	1.206239	-6.031194
Na	1.206637	-1.206239	-6.031194
Na	-3.619910	1.206239	-8.443671
O	-1.186949	-1.186394	-6.011349
O	-6.013496	1.186394	-8.463516
O	-3.639598	-1.186394	-8.463516
O	-3.600223	1.226083	-6.051039
O	1.186949	1.186394	-6.011349
O	-3.600223	3.598872	-8.423827
O	-1.226325	3.598872	-6.051039
O	-1.226324	1.226083	-8.423827
Ho	0.000000	4.824955	-4.824955
Ho	2.413274	2.412478	-7.237433
Na	-1.206637	3.618716	-8.443671
Na	3.619910	6.031194	-6.031194
Na	6.033184	3.618716	-6.031194
Na	1.206637	6.031194	-8.443671
O	3.639598	3.638561	-6.011349
O	-1.186949	6.011349	-8.463516
O	1.186949	3.638561	-8.463516
O	1.226324	6.051039	-6.051039
O	6.013496	6.011349	-6.011349
O	1.226325	8.423827	-8.423827
O	3.600223	8.423827	-6.051039
O	3.600223	6.051039	-8.423827
Ho	4.826547	-4.824955	0.000000
Ho	7.239821	-7.237433	-2.412478
Na	3.619910	-6.031194	-3.618716
Na	8.446457	-3.618716	-1.206239
Na	10.859731	-6.031194	-1.206239
Na	6.033184	-3.618716	-3.618716
O	8.466145	-6.011349	-1.186394
O	3.639598	-3.638561	-3.638561
O	6.013496	-6.011349	-3.638561
O	6.052872	-3.598872	-1.226083
O	10.840043	-3.638561	-1.186394
O	6.052872	-1.226083	-3.598872
O	8.426770	-1.226083	-1.226083
O	8.426770	-3.598872	-3.598872
Ho	9.653094	0.000000	0.000000
Ho	12.066368	-2.412478	-2.412478
Na	8.446457	-1.206239	-3.618716
Na	13.273005	1.206239	-1.206239
Na	15.686278	-1.206239	-1.206239
Na	10.859731	1.206239	-3.618716
O	13.292692	-1.186394	-1.186394
O	8.466145	1.186394	-3.638561
O	10.840043	-1.186394	-3.638561
O	10.879419	1.226083	-1.226083
O	15.666591	1.186394	-1.186394
O	10.879419	3.598872	-3.598872
O	13.253317	3.598872	-1.226083
O	13.253317	1.226083	-3.598872
Ho	0.000000	-4.824955	-4.824955
Ho	2.413274	-7.237433	-7.237433
Na	-1.206637	-6.031194	-8.443671
Na	3.619910	-3.618716	-6.031194
Na	6.033184	-6.031194	-6.031194
Na	1.206637	-3.618716	-8.443671
O	3.639598	-6.011349	-6.011349
O	-1.186949	-3.638561	-8.463516
O	1.186949	-6.011349	-8.463516
O	1.226324	-3.598872	-6.051039
O	6.013496	-3.638561	-6.011349
O	1.226325	-1.226083	-8.423827
O	3.600223	-1.226083	-6.051039
O	3.600223	-3.598872	-8.423827
Ho	4.826547	0.000000	-4.824955
Ho	7.239821	-2.412478	-7.237433
Na	3.619910	-1.206239	-8.443671
Na	8.446457	1.206239	-6.031194
Na	10.859731	-1.206239	-6.031194
Na	6.033184	1.206239	-8.443671
O	8.466145	-1.186394	-6.011349
O	3.639598	1.186394	-8.463516
O	6.013496	-1.186394	-8.463516
O	6.052872	1.226083	-6.051039
O	10.840043	1.186394	-6.011349
O	6.052872	3.598872	-8.423827
O	8.426770	3.598872	-6.051039
O	8.426770	1.226083	-8.423827
