112

Ge	4.120329	0.000000	0.000000
Ge	2.060165	2.060165	-2.060165
Mg	1.030082	-1.030082	-1.030082
Mg	3.090247	-3.090247	-1.030082
Mg	1.030082	-3.090247	-3.090247
Mg	3.090247	-1.030082	-3.090247
O	3.086308	-1.034022	-1.034022
O	-1.034022	1.034022	-3.086308
O	1.034022	-1.034022	-3.086308
O	1.026143	1.026143	-1.026143
O	5.154351	1.034022	-1.034022
O	3.094186	3.094186	-1.026143
O	1.026143	3.094186	-3.094186
O	3.094186	1.026143	-3.094186
Ge	8.240658	4.120329	0.000000
Ge	6.180494	6.180494	-2.060165
Mg	5.150411	3.090247	-1.030082
Mg	7.210576	1.030082	-1.030082
Mg	5.150411	1.030082	-3.090247
Mg	7.210576	3.090247	-3.090247
O	7.206637	3.086308	-1.034022
O	3.086308	5.154351	-3.086308
O	5.154351	3.086308	-3.086308
O	5.146472	5.146472	-1.026143
O	9.274680	5.154351	-1.034022
O	7.214515	7.214515	-1.026143
O	5.146472	7.214515	-3.094186
O	7.214515	5.146472	-3.094186
Ge	0.000000	0.000000	-4.120329
Ge	-2.060165	2.060165	-6.180494
Mg	-3.090247	-1.030082	-5.150411
Mg	-1.030082	-3.090247	-5.150411
Mg	-3.090247	-3.090247	-7.210576
Mg	-1.030082	-1.030082	-7.210576
O	-1.034022	-1.034022	-5.154351
O	-5.154351	1.034022	-7.206637
O	-3.086308	-1.034022	-7.206637
O	-3.094186	1.026143	-5.146472
O	1.034022	1.034022	-5.154351
O	-1.026143	3.094186	-5.146472
O	-3.094186	3.094186	-7.214515
O	-1.026143	1.026143	-7.214515
Ge	4.120329	4.120329	-4.120329
Ge	2.060165	6.180494	-6.180494
Mg	1.030082	3.090247	-5.150411
Mg	3.090247	1.030082	-5.150411
Mg	1.030082	1.030082	-7.210576
Mg	3.090247	3.090247	-7.210576
O	3.086308	3.086308	-5.154351
O	-1.034022	5.154351	-7.206637
O	1.034022	3.086308	-7.206637
O	1.026143	5.146472	-5.146472
O	5.154351	5.154351	-5.154351
O	3.094186	7.214515	-5.146472
O	1.026143	7.214515	-7.214515
O	3.094186	5.146472	-7.214515
Ge	8.240658	-4.120329	0.000000
Ge	6.180494	-2.060165	-2.060165
Mg	5.150411	-5.150411	-1.030082
Mg	7.210576	-7.210576	-1.030082
Mg	5.150411	-7.210576	-3.090247
Mg	7.210576	-5.150411	-3.090247
O	7.206637	-5.154351	-1.034022
O	3.086308	-3.086308	-3.086308
O	5.154351	-5.154351	-3.086308
O	5.146472	-3.094186	-1.026143
O	9.274680	-3.086308	-1.034022
O	7.214515	-1.026143	-1.026143
O	5.146472	-1.026143	-3.094186
O	7.214515	-3.094186	-3.094186
Ge	12.360988	0.000000	0.000000
Ge	10.300823	2.060165	-2.060165
Mg	9.270741	-1.030082	-1.030082
Mg	11.330905	-3.090247	-1.030082
Mg	9.270741	-3.090247	-3.090247
Mg	11.330905	-1.030082	-3.090247
O	11.326966	-1.034022	-1.034022
O	7.206637	1.034022	-3.086308
O	9.274680	-1.034022	-3.086308
O	9.266801	1.026143	-1.026143
O	13.395009	1.034022	-1.034022
O	11.334845	3.094186	-1.026143
O	9.266801	3.094186	-3.094186
O	11.334845	1.026143	-3.094186
Ge	4.120329	-4.120329	-4.120329
Ge	2.060165	-2.060165	-6.180494
Mg	1.030082	-5.150411	-5.150411
Mg	3.090247	-7.210576	-5.150411
Mg	1.030082	-7.210576	-7.210576
Mg	3.090247	-5.150411	-7.210576
O	3.086308	-5.154351	-5.154351
O	-1.034022	-3.086308	-7.206637
O	1.034022	-5.154351	-7.206637
O	1.026143	-3.094186	-5.146472
O	5.154351	-3.086308	-5.154351
O	3.094186	-1.026143	-5.146472
O	1.026143	-1.026143	-7.214515
O	3.094186	-3.094186	-7.214515
Ge	8.240658	0.000000	-4.120329
Ge	6.180494	2.060165	-6.180494
Mg	5.150411	-1.030082	-5.150411
Mg	7.210576	-3.090247	-5.150411
Mg	5.150411	-3.090247	-7.210576
Mg	7.210576	-1.030082	-7.210576
O	7.206637	-1.034022	-5.154351
O	3.086308	1.034022	-7.206637
O	5.154351	-1.034022	-7.206637
O	5.146472	1.026143	-5.146472
O	9.274680	1.034022	-5.154351
O	7.214515	3.094186	-5.146472
O	5.146472	3.094186	-7.214515
O	7.214515	1.026143	-7.214515
