112

Ca	0.000000	0.000000	0.000000
Ca	2.455568	-2.456189	-2.456189
Eu	-1.227779	-1.228094	-3.684283
Eu	1.227779	1.228094	-3.684283
Eu	3.683347	1.228094	-1.228094
Eu	6.138915	-1.228094	-1.228094
O	3.756068	-1.154804	-1.154804
O	-1.155059	1.154804	-3.757583
O	1.155059	-1.154804	-3.757583
O	1.300509	1.301395	-1.301395
O	6.066195	1.154804	-1.154804
O	1.300509	3.610992	-3.610992
O	3.610627	1.301395	-3.610992
O	3.610627	3.610992	-1.301395
Ca	4.911132	4.912382	0.000000
Ca	7.366700	2.456193	-2.456189
Eu	3.683353	3.684287	-3.684283
Eu	6.138911	6.140476	-3.684283
Eu	8.594479	6.140476	-1.228094
Eu	11.050047	3.684287	-1.228094
O	8.667200	3.757578	-1.154804
O	3.756073	6.067186	-3.757583
O	6.066191	3.757578	-3.757583
O	6.211641	6.213776	-1.301395
O	10.977327	6.067186	-1.154804
O	6.211641	8.523374	-3.610992
O	8.521759	6.213776	-3.610992
O	8.521759	8.523374	-1.301395
Ca	-4.911132	0.000000	-4.912382
Ca	-2.455564	-2.456189	-7.368570
Eu	-6.138911	-1.228094	-8.596665
Eu	-3.683353	1.228094	-8.596665
Eu	-1.227785	1.228094	-6.140476
Eu	1.227783	-1.228094	-6.140476
O	-1.155064	-1.154804	-6.067185
O	-6.066191	1.154804	-8.669965
O	-3.756073	-1.154804	-8.669965
O	-3.610623	1.301395	-6.213776
O	1.155063	1.154804	-6.067185
O	-3.610623	3.610992	-8.523374
O	-1.300505	1.301395	-8.523374
O	-1.300505	3.610992	-6.213776
Ca	0.000000	4.912382	-4.912382
Ca	2.455568	2.456193	-7.368570
Eu	-1.227779	3.684287	-8.596665
Eu	1.227779	6.140476	-8.596665
Eu	3.683347	6.140476	-6.140476
Eu	6.138915	3.684287	-6.140476
O	3.756068	3.757578	-6.067185
O	-1.155059	6.067186	-8.669965
O	1.155059	3.757578	-8.669965
O	1.300509	6.213776	-6.213776
O	6.066195	6.067186	-6.067185
O	1.300509	8.523374	-8.523374
O	3.610627	6.213776	-8.523374
O	3.610627	8.523374	-6.213776
Ca	4.911132	-4.912382	0.000000
Ca	7.366700	-7.368570	-2.456189
Eu	3.683353	-6.140476	-3.684283
Eu	6.138911	-3.684288	-3.684283
Eu	8.594479	-3.684287	-1.228094
Eu	11.050047	-6.140476	-1.228094
O	8.667200	-6.067185	-1.154804
O	3.756073	-3.757578	-3.757583
O	6.066191	-6.067185	-3.757583
O	6.211641	-3.610987	-1.301395
O	10.977327	-3.757578	-1.154804
O	6.211641	-1.301389	-3.610992
O	8.521759	-3.610987	-3.610992
O	8.521759	-1.301389	-1.301395
Ca	9.822264	0.000000	0.000000
Ca	12.277832	-2.456189	-2.456189
Eu	8.594485	-1.228094	-3.684283
Eu	11.050043	1.228094	-3.684283
Eu	13.505611	1.228094	-1.228094
Eu	15.961180	-1.228094	-1.228094
O	13.578332	-1.154804	-1.154804
O	8.667205	1.154804	-3.757583
O	10.977323	-1.154804	-3.757583
O	11.122773	1.301395	-1.301395
O	15.888459	1.154804	-1.154804
O	11.122773	3.610992	-3.610992
O	13.432891	1.301395	-3.610992
O	13.432891	3.610992	-1.301395
Ca	0.000000	-4.912382	-4.912382
Ca	2.455568	-7.368570	-7.368570
Eu	-1.227779	-6.140476	-8.596665
Eu	1.227779	-3.684288	-8.596665
Eu	3.683347	-3.684287	-6.140476
Eu	6.138915	-6.140476	-6.140476
O	3.756068	-6.067185	-6.067185
O	-1.155059	-3.757578	-8.669965
O	1.155059	-6.067185	-8.669965
O	1.300509	-3.610987	-6.213776
O	6.066195	-3.757578	-6.067185
O	1.300509	-1.301389	-8.523374
O	3.610627	-3.610987	-8.523374
O	3.610627	-1.301389	-6.213776
Ca	4.911132	0.000000	-4.912382
Ca	7.366700	-2.456189	-7.368570
Eu	3.683353	-1.228094	-8.596665
Eu	6.138911	1.228094	-8.596665
Eu	8.594479	1.228094	-6.140476
Eu	11.050047	-1.228094	-6.140476
O	8.667200	-1.154804	-6.067185
O	3.756073	1.154804	-8.669965
O	6.066191	-1.154804	-8.669965
O	6.211641	1.301395	-6.213776
O	10.977327	1.154804	-6.067185
O	6.211641	3.610992	-8.523374
O	8.521759	1.301395	-8.523374
O	8.521759	3.610992	-6.213776
