112

Ac	0.000000	0.000000	0.000000
Ac	2.324003	-2.322436	-2.322436
Mn	-1.162001	-1.161218	-3.483655
Mn	3.486004	1.161218	-1.161218
Mn	5.810007	-1.161218	-1.161218
Mn	1.162001	1.161218	-3.483655
O	3.667294	-0.978495	-0.978495
O	-0.980712	0.978495	-3.666378
O	0.980712	-0.978495	-3.666378
O	1.343291	1.343941	-1.343941
O	5.628718	0.978495	-0.978495
O	1.343291	3.300931	-3.300931
O	3.304715	3.300931	-1.343941
O	3.304715	1.343941	-3.300931
Ac	4.648006	4.644873	0.000000
Ac	6.972008	2.322436	-2.322436
Mn	3.486004	3.483655	-3.483655
Mn	8.134010	5.806091	-1.161218
Mn	10.458013	3.483655	-1.161218
Mn	5.810007	5.806091	-3.483655
O	8.315299	3.666378	-0.978495
O	3.667294	5.623368	-3.666378
O	5.628718	3.666378	-3.666378
O	5.991296	5.988814	-1.343941
O	10.276723	5.623368	-0.978495
O	5.991296	7.945804	-3.300931
O	7.952720	7.945804	-1.343941
O	7.952721	5.988814	-3.300931
Ac	-4.648006	0.000000	-4.644873
Ac	-2.324003	-2.322436	-6.967309
Mn	-5.810007	-1.161218	-8.128527
Mn	-1.162001	1.161218	-5.806091
Mn	1.162001	-1.161218	-5.806091
Mn	-3.486004	1.161218	-8.128527
O	-0.980712	-0.978495	-5.623368
O	-5.628718	0.978495	-8.311250
O	-3.667294	-0.978495	-8.311250
O	-3.304715	1.343941	-5.988814
O	0.980712	0.978495	-5.623368
O	-3.304715	3.300931	-7.945804
O	-1.343291	3.300931	-5.988814
O	-1.343291	1.343941	-7.945804
Ac	0.000000	4.644873	-4.644873
Ac	2.324003	2.322436	-6.967309
Mn	-1.162001	3.483655	-8.128527
Mn	3.486004	5.806091	-5.806091
Mn	5.810007	3.483655	-5.806091
Mn	1.162001	5.806091	-8.128527
O	3.667294	3.666378	-5.623368
O	-0.980712	5.623368	-8.311250
O	0.980712	3.666378	-8.311250
O	1.343291	5.988814	-5.988814
O	5.628718	5.623368	-5.623368
O	1.343291	7.945804	-7.945804
O	3.304715	7.945804	-5.988814
O	3.304715	5.988814	-7.945804
Ac	4.648006	-4.644873	0.000000
Ac	6.972008	-6.967309	-2.322436
Mn	3.486004	-5.806091	-3.483655
Mn	8.134010	-3.483655	-1.161218
Mn	10.458013	-5.806091	-1.161218
Mn	5.810007	-3.483655	-3.483655
O	8.315299	-5.623368	-0.978495
O	3.667294	-3.666378	-3.666378
O	5.628718	-5.623368	-3.666378
O	5.991296	-3.300931	-1.343941
O	10.276723	-3.666378	-0.978495
O	5.991296	-1.343941	-3.300931
O	7.952720	-1.343941	-1.343941
O	7.952721	-3.300931	-3.300931
Ac	9.296011	0.000000	0.000000
Ac	11.620014	-2.322436	-2.322436
Mn	8.134010	-1.161218	-3.483655
Mn	12.782016	1.161218	-1.161218
Mn	15.106018	-1.161218	-1.161218
Mn	10.458013	1.161218	-3.483655
O	12.963305	-0.978495	-0.978495
O	8.315299	0.978495	-3.666378
O	10.276723	-0.978495	-3.666378
O	10.639302	1.343941	-1.343941
O	14.924729	0.978495	-0.978495
O	10.639302	3.300931	-3.300931
O	12.600726	3.300931	-1.343941
O	12.600726	1.343941	-3.300931
Ac	0.000000	-4.644873	-4.644873
Ac	2.324003	-6.967309	-6.967309
Mn	-1.162001	-5.806091	-8.128527
Mn	3.486004	-3.483655	-5.806091
Mn	5.810007	-5.806091	-5.806091
Mn	1.162001	-3.483655	-8.128527
O	3.667294	-5.623368	-5.623368
O	-0.980712	-3.666378	-8.311250
O	0.980712	-5.623368	-8.311250
O	1.343291	-3.300931	-5.988814
O	5.628718	-3.666378	-5.623368
O	1.343291	-1.343941	-7.945804
O	3.304715	-1.343941	-5.988814
O	3.304715	-3.300931	-7.945804
Ac	4.648006	0.000000	-4.644873
Ac	6.972008	-2.322436	-6.967309
Mn	3.486004	-1.161218	-8.128527
Mn	8.134010	1.161218	-5.806091
Mn	10.458013	-1.161218	-5.806091
Mn	5.810007	1.161218	-8.128527
O	8.315299	-0.978495	-5.623368
O	3.667294	0.978495	-8.311250
O	5.628718	-0.978495	-8.311250
O	5.991296	1.343941	-5.988814
O	10.276723	0.978495	-5.623368
O	5.991296	3.300931	-7.945804
O	7.952720	3.300931	-5.988814
O	7.952721	1.343941	-7.945804
