112

Cr	0.000000	0.000000	0.000000
Cr	2.448705	-2.447879	-2.447879
La	-1.224353	-1.223940	-3.671819
La	3.673058	1.223940	-1.223940
La	6.121764	-1.223940	-1.223940
La	1.224353	1.223940	-3.671819
O	3.694071	-1.203477	-1.203477
O	-1.203340	1.203477	-3.692281
O	1.203340	-1.203477	-3.692281
O	1.245366	1.244402	-1.244402
O	6.100751	1.203477	-1.203477
O	1.245366	3.651356	-3.651356
O	3.652045	3.651356	-1.244402
O	3.652045	1.244402	-3.651356
Cr	4.897411	4.895758	0.000000
Cr	7.346116	2.447879	-2.447879
La	3.673058	3.671819	-3.671819
La	8.570469	6.119698	-1.223940
La	11.019175	3.671819	-1.223940
La	6.121764	6.119698	-3.671819
O	8.591482	3.692281	-1.203477
O	3.694071	6.099235	-3.692281
O	6.100751	3.692281	-3.692281
O	6.142777	6.140160	-1.244402
O	10.998162	6.099235	-1.203477
O	6.142777	8.547114	-3.651356
O	8.549456	8.547114	-1.244402
O	8.549456	6.140160	-3.651356
Cr	-4.897411	0.000000	-4.895758
Cr	-2.448705	-2.447879	-7.343637
La	-6.121764	-1.223940	-8.567577
La	-1.224353	1.223940	-6.119698
La	1.224353	-1.223940	-6.119698
La	-3.673058	1.223940	-8.567577
O	-1.203340	-1.203477	-6.099235
O	-6.100751	1.203477	-8.588039
O	-3.694071	-1.203477	-8.588039
O	-3.652045	1.244402	-6.140160
O	1.203340	1.203477	-6.099235
O	-3.652045	3.651356	-8.547114
O	-1.245366	3.651356	-6.140160
O	-1.245366	1.244402	-8.547114
Cr	0.000000	4.895758	-4.895758
Cr	2.448705	2.447879	-7.343637
La	-1.224353	3.671819	-8.567577
La	3.673058	6.119698	-6.119698
La	6.121764	3.671819	-6.119698
La	1.224353	6.119698	-8.567577
O	3.694071	3.692281	-6.099235
O	-1.203340	6.099235	-8.588039
O	1.203340	3.692281	-8.588039
O	1.245366	6.140160	-6.140160
O	6.100751	6.099235	-6.099235
O	1.245366	8.547114	-8.547114
O	3.652045	8.547114	-6.140160
O	3.652045	6.140160	-8.547114
Cr	4.897411	-4.895758	0.000000
Cr	7.346116	-7.343637	-2.447879
La	3.673058	-6.119698	-3.671819
La	8.570469	-3.671819	-1.223940
La	11.019175	-6.119698	-1.223940
La	6.121764	-3.671819	-3.671819
O	8.591482	-6.099235	-1.203477
O	3.694071	-3.692281	-3.692281
O	6.100751	-6.099235	-3.692281
O	6.142777	-3.651356	-1.244402
O	10.998162	-3.692281	-1.203477
O	6.142777	-1.244402	-3.651356
O	8.549456	-1.244402	-1.244402
O	8.549456	-3.651356	-3.651356
Cr	9.794822	0.000000	0.000000
Cr	12.243527	-2.447879	-2.447879
La	8.570469	-1.223940	-3.671819
La	13.467880	1.223940	-1.223940
La	15.916586	-1.223940	-1.223940
La	11.019175	1.223940	-3.671819
O	13.488893	-1.203477	-1.203477
O	8.591482	1.203477	-3.692281
O	10.998162	-1.203477	-3.692281
O	11.040188	1.244402	-1.244402
O	15.895572	1.203477	-1.203477
O	11.040188	3.651356	-3.651356
O	13.446867	3.651356	-1.244402
O	13.446867	1.244402	-3.651356
Cr	0.000000	-4.895758	-4.895758
Cr	2.448705	-7.343637	-7.343637
La	-1.224353	-6.119698	-8.567577
La	3.673058	-3.671819	-6.119698
La	6.121764	-6.119698	-6.119698
La	1.224353	-3.671819	-8.567577
O	3.694071	-6.099235	-6.099235
O	-1.203340	-3.692281	-8.588039
O	1.203340	-6.099235	-8.588039
O	1.245366	-3.651356	-6.140160
O	6.100751	-3.692281	-6.099235
O	1.245366	-1.244402	-8.547114
O	3.652045	-1.244402	-6.140160
O	3.652045	-3.651356	-8.547114
Cr	4.897411	0.000000	-4.895758
Cr	7.346116	-2.447879	-7.343637
La	3.673058	-1.223940	-8.567577
La	8.570469	1.223940	-6.119698
La	11.019175	-1.223940	-6.119698
La	6.121764	1.223940	-8.567577
O	8.591482	-1.203477	-6.099235
O	3.694071	1.203477	-8.588039
O	6.100751	-1.203477	-8.588039
O	6.142777	1.244402	-6.140160
O	10.998162	1.203477	-6.099235
O	6.142777	3.651356	-8.547114
O	8.549456	3.651356	-6.140160
O	8.549456	1.244402	-8.547114
