40

O	2.002468	2.002468	0.000000
O	2.002468	0.000000	2.002468
O	0.000000	2.002468	2.002468
Re	2.002468	2.002468	2.002468
Te	0.000000	0.000000	0.000000
O	2.002468	2.002468	4.004936
O	2.002468	0.000000	6.007404
O	0.000000	2.002468	6.007404
Re	2.002468	2.002468	6.007404
Te	0.000000	0.000000	4.004936
O	2.002468	6.007404	0.000000
O	2.002468	4.004936	2.002468
O	0.000000	6.007404	2.002468
Re	2.002468	6.007404	2.002468
Te	0.000000	4.004936	0.000000
O	2.002468	6.007404	4.004936
O	2.002468	4.004936	6.007404
O	0.000000	6.007404	6.007404
Re	2.002468	6.007404	6.007404
Te	0.000000	4.004936	4.004936
O	6.007404	2.002468	0.000000
O	6.007404	0.000000	2.002468
O	4.004936	2.002468	2.002468
Re	6.007404	2.002468	2.002468
Te	4.004936	0.000000	0.000000
O	6.007404	2.002468	4.004936
O	6.007404	0.000000	6.007404
O	4.004936	2.002468	6.007404
Re	6.007404	2.002468	6.007404
Te	4.004936	0.000000	4.004936
O	6.007404	6.007404	0.000000
O	6.007404	4.004936	2.002468
O	4.004936	6.007404	2.002468
Re	6.007404	6.007404	2.002468
Te	4.004936	4.004936	0.000000
O	6.007404	6.007404	4.004936
O	6.007404	4.004936	6.007404
O	4.004936	6.007404	6.007404
Re	6.007404	6.007404	6.007404
Te	4.004936	4.004936	4.004936
