40

N	1.859095	1.859095	1.859095
O	0.000000	1.859095	1.859095
O	1.859095	0.000000	1.859095
O	1.859095	1.859095	0.000000
Pb	0.000000	0.000000	0.000000
N	1.859095	1.859095	5.577286
O	0.000000	1.859095	5.577286
O	1.859095	0.000000	5.577286
O	1.859095	1.859095	3.718191
Pb	0.000000	0.000000	3.718191
N	1.859095	5.577286	1.859095
O	0.000000	5.577286	1.859095
O	1.859095	3.718191	1.859095
O	1.859095	5.577286	0.000000
Pb	0.000000	3.718191	0.000000
N	1.859095	5.577286	5.577286
O	0.000000	5.577286	5.577286
O	1.859095	3.718191	5.577286
O	1.859095	5.577286	3.718191
Pb	0.000000	3.718191	3.718191
N	5.577286	1.859095	1.859095
O	3.718191	1.859095	1.859095
O	5.577286	0.000000	1.859095
O	5.577286	1.859095	0.000000
Pb	3.718191	0.000000	0.000000
N	5.577286	1.859095	5.577286
O	3.718191	1.859095	5.577286
O	5.577286	0.000000	5.577286
O	5.577286	1.859095	3.718191
Pb	3.718191	0.000000	3.718191
N	5.577286	5.577286	1.859095
O	3.718191	5.577286	1.859095
O	5.577286	3.718191	1.859095
O	5.577286	5.577286	0.000000
Pb	3.718191	3.718191	0.000000
N	5.577286	5.577286	5.577286
O	3.718191	5.577286	5.577286
O	5.577286	3.718191	5.577286
O	5.577286	5.577286	3.718191
Pb	3.718191	3.718191	3.718191
