40

F	2.023016	2.023016	2.023016
Na	0.000000	0.000000	0.000000
O	0.000000	2.023016	2.023016
O	2.023016	0.000000	2.023016
O	2.023016	2.023016	0.000000
F	2.023016	2.023016	6.069049
Na	0.000000	0.000000	4.046033
O	0.000000	2.023016	6.069049
O	2.023016	0.000000	6.069049
O	2.023016	2.023016	4.046033
F	2.023016	6.069049	2.023016
Na	0.000000	4.046033	0.000000
O	0.000000	6.069049	2.023016
O	2.023016	4.046033	2.023016
O	2.023016	6.069049	0.000000
F	2.023016	6.069049	6.069049
Na	0.000000	4.046033	4.046033
O	0.000000	6.069049	6.069049
O	2.023016	4.046033	6.069049
O	2.023016	6.069049	4.046033
F	6.069049	2.023016	2.023016
Na	4.046033	0.000000	0.000000
O	4.046033	2.023016	2.023016
O	6.069049	0.000000	2.023016
O	6.069049	2.023016	0.000000
F	6.069049	2.023016	6.069049
Na	4.046033	0.000000	4.046033
O	4.046033	2.023016	6.069049
O	6.069049	0.000000	6.069049
O	6.069049	2.023016	4.046033
F	6.069049	6.069049	2.023016
Na	4.046033	4.046033	0.000000
O	4.046033	6.069049	2.023016
O	6.069049	4.046033	2.023016
O	6.069049	6.069049	0.000000
F	6.069049	6.069049	6.069049
Na	4.046033	4.046033	4.046033
O	4.046033	6.069049	6.069049
O	6.069049	4.046033	6.069049
O	6.069049	6.069049	4.046033
