40

Ni	0.000000	0.000000	0.000000
O	1.995340	1.995340	0.000000
O	1.995340	0.000000	1.995340
O	0.000000	1.995340	1.995340
Sn	1.995340	1.995340	1.995340
Ni	0.000000	0.000000	3.990678
O	1.995340	1.995340	3.990678
O	1.995340	0.000000	5.986018
O	0.000000	1.995340	5.986018
Sn	1.995340	1.995340	5.986018
Ni	0.000000	3.990678	0.000000
O	1.995340	5.986018	0.000000
O	1.995340	3.990678	1.995340
O	0.000000	5.986018	1.995340
Sn	1.995340	5.986018	1.995340
Ni	0.000000	3.990678	3.990678
O	1.995340	5.986018	3.990678
O	1.995340	3.990678	5.986018
O	0.000000	5.986018	5.986018
Sn	1.995340	5.986018	5.986018
Ni	3.990678	0.000000	0.000000
O	5.986018	1.995340	0.000000
O	5.986018	0.000000	1.995340
O	3.990678	1.995340	1.995340
Sn	5.986018	1.995340	1.995340
Ni	3.990678	0.000000	3.990678
O	5.986018	1.995340	3.990678
O	5.986018	0.000000	5.986018
O	3.990678	1.995340	5.986018
Sn	5.986018	1.995340	5.986018
Ni	3.990678	3.990678	0.000000
O	5.986018	5.986018	0.000000
O	5.986018	3.990678	1.995340
O	3.990678	5.986018	1.995340
Sn	5.986018	5.986018	1.995340
Ni	3.990678	3.990678	3.990678
O	5.986018	5.986018	3.990678
O	5.986018	3.990678	5.986018
O	3.990678	5.986018	5.986018
Sn	5.986018	5.986018	5.986018
