40

O	0.000000	2.114315	2.114315
O	2.114315	0.000000	2.114315
O	2.114315	2.114315	0.000000
Te	2.114315	2.114315	2.114315
Ti	0.000000	0.000000	0.000000
O	0.000000	2.114315	6.342944
O	2.114315	0.000000	6.342944
O	2.114315	2.114315	4.228629
Te	2.114315	2.114315	6.342944
Ti	0.000000	0.000000	4.228629
O	0.000000	6.342944	2.114315
O	2.114315	4.228629	2.114315
O	2.114315	6.342944	0.000000
Te	2.114315	6.342944	2.114315
Ti	0.000000	4.228629	0.000000
O	0.000000	6.342944	6.342944
O	2.114315	4.228629	6.342944
O	2.114315	6.342944	4.228629
Te	2.114315	6.342944	6.342944
Ti	0.000000	4.228629	4.228629
O	4.228629	2.114315	2.114315
O	6.342944	0.000000	2.114315
O	6.342944	2.114315	0.000000
Te	6.342944	2.114315	2.114315
Ti	4.228629	0.000000	0.000000
O	4.228629	2.114315	6.342944
O	6.342944	0.000000	6.342944
O	6.342944	2.114315	4.228629
Te	6.342944	2.114315	6.342944
Ti	4.228629	0.000000	4.228629
O	4.228629	6.342944	2.114315
O	6.342944	4.228629	2.114315
O	6.342944	6.342944	0.000000
Te	6.342944	6.342944	2.114315
Ti	4.228629	4.228629	0.000000
O	4.228629	6.342944	6.342944
O	6.342944	4.228629	6.342944
O	6.342944	6.342944	4.228629
Te	6.342944	6.342944	6.342944
Ti	4.228629	4.228629	4.228629
