40

O	0.000000	2.192080	2.192080
O	2.192080	0.000000	2.192080
O	2.192080	2.192080	0.000000
Sr	2.192080	2.192080	2.192080
Ta	0.000000	0.000000	0.000000
O	0.000000	2.192080	6.576239
O	2.192080	0.000000	6.576239
O	2.192080	2.192080	4.384159
Sr	2.192080	2.192080	6.576239
Ta	0.000000	0.000000	4.384159
O	0.000000	6.576239	2.192080
O	2.192080	4.384159	2.192080
O	2.192080	6.576239	0.000000
Sr	2.192080	6.576239	2.192080
Ta	0.000000	4.384159	0.000000
O	0.000000	6.576239	6.576239
O	2.192080	4.384159	6.576239
O	2.192080	6.576239	4.384159
Sr	2.192080	6.576239	6.576239
Ta	0.000000	4.384159	4.384159
O	4.384159	2.192080	2.192080
O	6.576239	0.000000	2.192080
O	6.576239	2.192080	0.000000
Sr	6.576239	2.192080	2.192080
Ta	4.384159	0.000000	0.000000
O	4.384159	2.192080	6.576239
O	6.576239	0.000000	6.576239
O	6.576239	2.192080	4.384159
Sr	6.576239	2.192080	6.576239
Ta	4.384159	0.000000	4.384159
O	4.384159	6.576239	2.192080
O	6.576239	4.384159	2.192080
O	6.576239	6.576239	0.000000
Sr	6.576239	6.576239	2.192080
Ta	4.384159	4.384159	0.000000
O	4.384159	6.576239	6.576239
O	6.576239	4.384159	6.576239
O	6.576239	6.576239	4.384159
Sr	6.576239	6.576239	6.576239
Ta	4.384159	4.384159	4.384159
