40

Mo	1.993890	1.993890	1.993890
O	1.993890	1.993890	0.000000
O	0.000000	1.993890	1.993890
O	1.993890	0.000000	1.993890
Sn	0.000000	0.000000	0.000000
Mo	1.993890	1.993890	5.981683
O	1.993890	1.993890	3.987793
O	0.000000	1.993890	5.981683
O	1.993890	0.000000	5.981683
Sn	0.000000	0.000000	3.987793
Mo	1.993890	5.981683	1.993890
O	1.993890	5.981683	0.000000
O	0.000000	5.981683	1.993890
O	1.993890	3.987793	1.993890
Sn	0.000000	3.987793	0.000000
Mo	1.993890	5.981683	5.981683
O	1.993890	5.981683	3.987793
O	0.000000	5.981683	5.981683
O	1.993890	3.987793	5.981683
Sn	0.000000	3.987793	3.987793
Mo	5.981683	1.993890	1.993890
O	5.981683	1.993890	0.000000
O	3.987793	1.993890	1.993890
O	5.981683	0.000000	1.993890
Sn	3.987793	0.000000	0.000000
Mo	5.981683	1.993890	5.981683
O	5.981683	1.993890	3.987793
O	3.987793	1.993890	5.981683
O	5.981683	0.000000	5.981683
Sn	3.987793	0.000000	3.987793
Mo	5.981683	5.981683	1.993890
O	5.981683	5.981683	0.000000
O	3.987793	5.981683	1.993890
O	5.981683	3.987793	1.993890
Sn	3.987793	3.987793	0.000000
Mo	5.981683	5.981683	5.981683
O	5.981683	5.981683	3.987793
O	3.987793	5.981683	5.981683
O	5.981683	3.987793	5.981683
Sn	3.987793	3.987793	3.987793
