112

Au	0.000000	0.000000	0.000000
Au	2.215087	-2.215570	-2.215570
Ge	-1.107544	-1.107785	-3.323355
Ge	5.537719	-1.107785	-1.107785
Ge	3.322631	1.107785	-1.107785
Ge	1.107544	1.107785	-3.323355
O	-0.904216	0.904054	-3.527087
O	3.525968	-0.904054	-0.904054
O	0.904216	-0.904054	-3.527087
O	1.310881	1.311517	-1.311517
O	5.334391	0.904054	-0.904054
O	1.310881	3.119624	-3.119624
O	3.119304	3.119624	-1.311517
O	3.119304	1.311517	-3.119624
Au	4.430176	4.431137	0.000000
Au	6.645264	2.215566	-2.215570
Ge	3.322633	3.323351	-3.323355
Ge	9.967895	3.323351	-1.107785
Ge	7.752808	5.538922	-1.107785
Ge	5.537720	5.538922	-3.323355
O	3.525960	5.335190	-3.527087
O	7.956145	3.527083	-0.904054
O	5.334393	3.527083	-3.527087
O	5.741057	5.742653	-1.311517
O	9.764568	5.335190	-0.904054
O	5.741057	7.550760	-3.119624
O	7.549480	7.550760	-1.311517
O	7.549480	5.742653	-3.119624
Au	-4.430176	0.000000	-4.431137
Au	-2.215089	-2.215570	-6.646707
Ge	-5.537720	-1.107785	-7.754492
Ge	1.107542	-1.107785	-5.538922
Ge	-1.107545	1.107785	-5.538922
Ge	-3.322633	1.107785	-7.754492
O	-5.334393	0.904054	-7.958223
O	-0.904208	-0.904054	-5.335190
O	-3.525960	-0.904054	-7.958223
O	-3.119295	1.311517	-5.742653
O	0.904215	0.904054	-5.335190
O	-3.119295	3.119624	-7.550760
O	-1.310872	3.119624	-5.742653
O	-1.310872	1.311517	-7.550760
Au	0.000000	4.431137	-4.431137
Au	2.215087	2.215566	-6.646707
Ge	-1.107544	3.323351	-7.754492
Ge	5.537719	3.323351	-5.538922
Ge	3.322631	5.538922	-5.538922
Ge	1.107544	5.538922	-7.754492
O	-0.904216	5.335190	-7.958223
O	3.525968	3.527083	-5.335190
O	0.904216	3.527083	-7.958223
O	1.310881	5.742653	-5.742653
O	5.334391	5.335190	-5.335190
O	1.310881	7.550760	-7.550760
O	3.119304	7.550760	-5.742653
O	3.119304	5.742653	-7.550760
Au	4.430176	-4.431137	0.000000
Au	6.645264	-6.646707	-2.215570
Ge	3.322633	-5.538922	-3.323355
Ge	9.967895	-5.538922	-1.107785
Ge	7.752808	-3.323351	-1.107785
Ge	5.537720	-3.323351	-3.323355
O	3.525960	-3.527083	-3.527087
O	7.956145	-5.335190	-0.904054
O	5.334393	-5.335190	-3.527087
O	5.741057	-3.119620	-1.311517
O	9.764568	-3.527083	-0.904054
O	5.741057	-1.311513	-3.119624
O	7.549480	-1.311513	-1.311517
O	7.549480	-3.119620	-3.119624
Au	8.860353	0.000000	0.000000
Au	11.075440	-2.215570	-2.215570
Ge	7.752809	-1.107785	-3.323355
Ge	14.398071	-1.107785	-1.107785
Ge	12.182984	1.107785	-1.107785
Ge	9.967896	1.107785	-3.323355
O	7.956136	0.904054	-3.527087
O	12.386321	-0.904054	-0.904054
O	9.764569	-0.904054	-3.527087
O	10.171233	1.311517	-1.311517
O	14.194744	0.904054	-0.904054
O	10.171233	3.119624	-3.119624
O	11.979657	3.119624	-1.311517
O	11.979656	1.311517	-3.119624
Au	0.000000	-4.431137	-4.431137
Au	2.215087	-6.646707	-6.646707
Ge	-1.107544	-5.538922	-7.754492
Ge	5.537719	-5.538922	-5.538922
Ge	3.322631	-3.323351	-5.538922
Ge	1.107544	-3.323351	-7.754492
O	-0.904216	-3.527083	-7.958223
O	3.525968	-5.335190	-5.335190
O	0.904216	-5.335190	-7.958223
O	1.310881	-3.119620	-5.742653
O	5.334391	-3.527083	-5.335190
O	1.310881	-1.311513	-7.550760
O	3.119304	-1.311513	-5.742653
O	3.119304	-3.119620	-7.550760
Au	4.430176	0.000000	-4.431137
Au	6.645264	-2.215570	-6.646707
Ge	3.322633	-1.107785	-7.754492
Ge	9.967895	-1.107785	-5.538922
Ge	7.752808	1.107785	-5.538922
Ge	5.537720	1.107785	-7.754492
O	3.525960	0.904054	-7.958223
O	7.956145	-0.904054	-5.335190
O	5.334393	-0.904054	-7.958223
O	5.741057	1.311517	-5.742653
O	9.764568	0.904054	-5.335190
O	5.741057	3.119624	-7.550760
O	7.549480	3.119624	-5.742653
O	7.549480	1.311517	-7.550760
