112

La	0.000000	0.000000	0.000000
La	2.512097	-2.512795	-2.512795
Nd	-1.256043	-1.256397	-3.769192
Nd	1.256044	1.256397	-3.769192
Nd	3.768140	1.256397	-1.256397
Nd	6.280237	-1.256397	-1.256397
O	3.861628	-1.162308	-1.162308
O	-1.162556	1.162308	-3.863291
O	1.162556	-1.162308	-3.863291
O	1.349541	1.350497	-1.350497
O	6.186750	1.162308	-1.162308
O	1.349541	3.675103	-3.675103
O	3.674653	3.675103	-1.350497
O	3.674653	1.350497	-3.675103
La	5.024190	5.025591	0.000000
La	7.536287	2.512796	-2.512795
Nd	3.768147	3.769193	-3.769192
Nd	6.280234	6.281988	-3.769192
Nd	8.792331	6.281988	-1.256397
Nd	11.304428	3.769193	-1.256397
O	8.885818	3.863283	-1.162308
O	3.861634	6.187899	-3.863291
O	6.186746	3.863283	-3.863291
O	6.373731	6.376087	-1.350497
O	11.210940	6.187899	-1.162308
O	6.373731	8.700693	-3.675103
O	8.698843	8.700693	-1.350497
O	8.698843	6.376087	-3.675103
La	-5.024190	0.000000	-5.025591
La	-2.512093	-2.512795	-7.538385
Nd	-6.280234	-1.256397	-8.794783
Nd	-3.768147	1.256397	-8.794783
Nd	-1.256050	1.256397	-6.281988
Nd	1.256047	-1.256397	-6.281988
O	-1.162562	-1.162308	-6.187899
O	-6.186746	1.162308	-8.888882
O	-3.861634	-1.162308	-8.888882
O	-3.674649	1.350497	-6.376087
O	1.162560	1.162308	-6.187899
O	-3.674649	3.675103	-8.700693
O	-1.349537	3.675103	-6.376087
O	-1.349537	1.350497	-8.700693
La	0.000000	5.025591	-5.025591
La	2.512097	2.512796	-7.538385
Nd	-1.256043	3.769193	-8.794783
Nd	1.256044	6.281988	-8.794783
Nd	3.768140	6.281988	-6.281988
Nd	6.280237	3.769193	-6.281988
O	3.861628	3.863283	-6.187899
O	-1.162556	6.187899	-8.888882
O	1.162556	3.863283	-8.888882
O	1.349541	6.376087	-6.376087
O	6.186750	6.187899	-6.187899
O	1.349541	8.700693	-8.700693
O	3.674653	8.700693	-6.376087
O	3.674653	6.376087	-8.700693
La	5.024190	-5.025591	0.000000
La	7.536287	-7.538385	-2.512795
Nd	3.768147	-6.281988	-3.769192
Nd	6.280234	-3.769193	-3.769192
Nd	8.792331	-3.769193	-1.256397
Nd	11.304428	-6.281988	-1.256397
O	8.885818	-6.187899	-1.162308
O	3.861634	-3.863283	-3.863291
O	6.186746	-6.187899	-3.863291
O	6.373731	-3.675094	-1.350497
O	11.210940	-3.863283	-1.162308
O	6.373731	-1.350488	-3.675103
O	8.698843	-1.350488	-1.350497
O	8.698843	-3.675094	-3.675103
La	10.048380	0.000000	0.000000
La	12.560477	-2.512795	-2.512795
Nd	8.792337	-1.256397	-3.769192
Nd	11.304424	1.256397	-3.769192
Nd	13.816521	1.256397	-1.256397
Nd	16.328618	-1.256397	-1.256397
O	13.910008	-1.162308	-1.162308
O	8.885824	1.162308	-3.863291
O	11.210936	-1.162308	-3.863291
O	11.397921	1.350497	-1.350497
O	16.235130	1.162308	-1.162308
O	11.397921	3.675103	-3.675103
O	13.723033	3.675103	-1.350497
O	13.723033	1.350497	-3.675103
La	0.000000	-5.025591	-5.025591
La	2.512097	-7.538385	-7.538385
Nd	-1.256043	-6.281988	-8.794783
Nd	1.256044	-3.769193	-8.794783
Nd	3.768140	-3.769193	-6.281988
Nd	6.280237	-6.281988	-6.281988
O	3.861628	-6.187899	-6.187899
O	-1.162556	-3.863283	-8.888882
O	1.162556	-6.187899	-8.888882
O	1.349541	-3.675094	-6.376087
O	6.186750	-3.863283	-6.187899
O	1.349541	-1.350488	-8.700693
O	3.674653	-1.350488	-6.376087
O	3.674653	-3.675094	-8.700693
La	5.024190	0.000000	-5.025591
La	7.536287	-2.512795	-7.538385
Nd	3.768147	-1.256397	-8.794783
Nd	6.280234	1.256397	-8.794783
Nd	8.792331	1.256397	-6.281988
Nd	11.304428	-1.256397	-6.281988
O	8.885818	-1.162308	-6.187899
O	3.861634	1.162308	-8.888882
O	6.186746	-1.162308	-8.888882
O	6.373731	1.350497	-6.376087
O	11.210940	1.162308	-6.187899
O	6.373731	3.675103	-8.700693
O	8.698843	3.675103	-6.376087
O	8.698843	1.350497	-8.700693
