40

Fe	1.913609	1.913609	1.913609
O	1.913609	1.913609	0.000000
O	1.913609	0.000000	1.913609
O	0.000000	1.913609	1.913609
W	0.000000	0.000000	0.000000
Fe	1.913609	1.913609	5.740826
O	1.913609	1.913609	3.827217
O	1.913609	0.000000	5.740826
O	0.000000	1.913609	5.740826
W	0.000000	0.000000	3.827217
Fe	1.913609	5.740826	1.913609
O	1.913609	5.740826	0.000000
O	1.913609	3.827217	1.913609
O	0.000000	5.740826	1.913609
W	0.000000	3.827217	0.000000
Fe	1.913609	5.740826	5.740826
O	1.913609	5.740826	3.827217
O	1.913609	3.827217	5.740826
O	0.000000	5.740826	5.740826
W	0.000000	3.827217	3.827217
Fe	5.740826	1.913609	1.913609
O	5.740826	1.913609	0.000000
O	5.740826	0.000000	1.913609
O	3.827217	1.913609	1.913609
W	3.827217	0.000000	0.000000
Fe	5.740826	1.913609	5.740826
O	5.740826	1.913609	3.827217
O	5.740826	0.000000	5.740826
O	3.827217	1.913609	5.740826
W	3.827217	0.000000	3.827217
Fe	5.740826	5.740826	1.913609
O	5.740826	5.740826	0.000000
O	5.740826	3.827217	1.913609
O	3.827217	5.740826	1.913609
W	3.827217	3.827217	0.000000
Fe	5.740826	5.740826	5.740826
O	5.740826	5.740826	3.827217
O	5.740826	3.827217	5.740826
O	3.827217	5.740826	5.740826
W	3.827217	3.827217	3.827217
