112

Mg	0.000000	0.000000	0.000000
Mg	2.581046	-2.581541	-2.581541
O	1.118565	1.119199	-1.119199
O	3.699612	-1.462352	-1.462352
O	-1.462471	1.462352	-3.700740
O	1.462471	-1.462352	-3.700740
O	1.118565	4.043893	-4.043893
O	4.043518	4.043893	-1.119199
O	4.043518	1.119199	-4.043893
O	6.624564	1.462352	-1.462352
Rb	-1.290518	-1.290770	-3.872311
Rb	1.290518	1.290770	-3.872311
Rb	3.871565	1.290771	-1.290770
Rb	6.452611	-1.290770	-1.290770
Mg	5.162090	5.163087	0.000000
Mg	7.743136	2.581546	-2.581541
O	6.280655	6.282286	-1.119199
O	8.861701	3.700735	-1.462352
O	3.699618	6.625439	-3.700740
O	6.624561	3.700735	-3.700740
O	6.280655	9.206980	-4.043893
O	9.205607	9.206980	-1.119199
O	9.205607	6.282286	-4.043893
O	11.786654	6.625439	-1.462352
Rb	3.871571	3.872316	-3.872311
Rb	6.452608	6.453857	-3.872311
Rb	9.033654	6.453857	-1.290770
Rb	11.614701	3.872316	-1.290770
Mg	-5.162090	0.000000	-5.163087
Mg	-2.581043	-2.581541	-7.744628
O	-4.043524	1.119199	-6.282286
O	-1.462478	-1.462352	-6.625439
O	-6.624561	1.462352	-8.863827
O	-3.699618	-1.462352	-8.863827
O	-4.043524	4.043893	-9.206980
O	-1.118572	4.043893	-6.282286
O	-1.118572	1.119199	-9.206980
O	1.462474	1.462352	-6.625439
Rb	-6.452608	-1.290770	-9.035398
Rb	-3.871571	1.290770	-9.035398
Rb	-1.290525	1.290771	-6.453857
Rb	1.290521	-1.290770	-6.453857
Mg	0.000000	5.163087	-5.163087
Mg	2.581046	2.581546	-7.744628
O	1.118565	6.282286	-6.282286
O	3.699612	3.700735	-6.625439
O	-1.462471	6.625439	-8.863827
O	1.462471	3.700735	-8.863827
O	1.118565	9.206980	-9.206980
O	4.043518	9.206980	-6.282286
O	4.043518	6.282286	-9.206980
O	6.624564	6.625439	-6.625439
Rb	-1.290518	3.872316	-9.035398
Rb	1.290518	6.453857	-9.035398
Rb	3.871565	6.453857	-6.453857
Rb	6.452611	3.872316	-6.453857
Mg	5.162090	-5.163087	0.000000
Mg	7.743136	-7.744628	-2.581541
O	6.280655	-4.043888	-1.119199
O	8.861701	-6.625439	-1.462352
O	3.699618	-3.700735	-3.700740
O	6.624561	-6.625439	-3.700740
O	6.280655	-1.119194	-4.043893
O	9.205607	-1.119194	-1.119199
O	9.205607	-4.043888	-4.043893
O	11.786654	-3.700735	-1.462352
Rb	3.871571	-6.453857	-3.872311
Rb	6.452608	-3.872316	-3.872311
Rb	9.033654	-3.872316	-1.290770
Rb	11.614701	-6.453857	-1.290770
Mg	10.324179	0.000000	0.000000
Mg	12.905226	-2.581541	-2.581541
O	11.442744	1.119199	-1.119199
O	14.023791	-1.462352	-1.462352
O	8.861708	1.462352	-3.700740
O	11.786651	-1.462352	-3.700740
O	11.442744	4.043893	-4.043893
O	14.367697	4.043893	-1.119199
O	14.367697	1.119199	-4.043893
O	16.948743	1.462352	-1.462352
Rb	9.033661	-1.290770	-3.872311
Rb	11.614698	1.290770	-3.872311
Rb	14.195744	1.290771	-1.290770
Rb	16.776790	-1.290770	-1.290770
Mg	0.000000	-5.163087	-5.163087
Mg	2.581046	-7.744628	-7.744628
O	1.118565	-4.043888	-6.282286
O	3.699612	-6.625439	-6.625439
O	-1.462471	-3.700735	-8.863827
O	1.462471	-6.625439	-8.863827
O	1.118565	-1.119194	-9.206980
O	4.043518	-1.119194	-6.282286
O	4.043518	-4.043888	-9.206980
O	6.624564	-3.700735	-6.625439
Rb	-1.290518	-6.453857	-9.035398
Rb	1.290518	-3.872316	-9.035398
Rb	3.871565	-3.872316	-6.453857
Rb	6.452611	-6.453857	-6.453857
Mg	5.162090	0.000000	-5.163087
Mg	7.743136	-2.581541	-7.744628
O	6.280655	1.119199	-6.282286
O	8.861701	-1.462352	-6.625439
O	3.699618	1.462352	-8.863827
O	6.624561	-1.462352	-8.863827
O	6.280655	4.043893	-9.206980
O	9.205607	4.043893	-6.282286
O	9.205607	1.119199	-9.206980
O	11.786654	1.462352	-6.625439
Rb	3.871571	-1.290770	-9.035398
Rb	6.452608	1.290770	-9.035398
Rb	9.033654	1.290771	-6.453857
Rb	11.614701	-1.290770	-6.453857
