40

La	2.268353	2.268353	2.268353
Np	0.000000	0.000000	0.000000
O	2.268353	2.268353	0.000000
O	2.268353	0.000000	2.268353
O	0.000000	2.268353	2.268353
La	2.268353	2.268353	6.805056
Np	0.000000	0.000000	4.536703
O	2.268353	2.268353	4.536703
O	2.268353	0.000000	6.805056
O	0.000000	2.268353	6.805056
La	2.268353	6.805056	2.268353
Np	0.000000	4.536703	0.000000
O	2.268353	6.805056	0.000000
O	2.268353	4.536703	2.268353
O	0.000000	6.805056	2.268353
La	2.268353	6.805056	6.805056
Np	0.000000	4.536703	4.536703
O	2.268353	6.805056	4.536703
O	2.268353	4.536703	6.805056
O	0.000000	6.805056	6.805056
La	6.805056	2.268353	2.268353
Np	4.536703	0.000000	0.000000
O	6.805056	2.268353	0.000000
O	6.805056	0.000000	2.268353
O	4.536703	2.268353	2.268353
La	6.805056	2.268353	6.805056
Np	4.536703	0.000000	4.536703
O	6.805056	2.268353	4.536703
O	6.805056	0.000000	6.805056
O	4.536703	2.268353	6.805056
La	6.805056	6.805056	2.268353
Np	4.536703	4.536703	0.000000
O	6.805056	6.805056	0.000000
O	6.805056	4.536703	2.268353
O	4.536703	6.805056	2.268353
La	6.805056	6.805056	6.805056
Np	4.536703	4.536703	4.536703
O	6.805056	6.805056	4.536703
O	6.805056	4.536703	6.805056
O	4.536703	6.805056	6.805056
