112

Lu	0.000000	0.000000	0.000000
Lu	2.183106	-2.183542	-2.183542
Mg	-1.091553	-1.091771	-3.275314
Mg	3.274650	1.091771	-1.091771
Mg	5.457756	-1.091771	-1.091771
Mg	1.091553	1.091771	-3.275314
O	-0.990452	0.990069	-3.377006
O	3.375751	-0.990069	-0.990069
O	0.990452	-0.990069	-3.377006
O	1.192654	1.193464	-1.193464
O	5.356655	0.990069	-0.990069
O	1.192654	3.173611	-3.173611
O	3.173549	3.173611	-1.193464
O	3.173549	1.193464	-3.173611
Lu	4.366204	4.367080	0.000000
Lu	6.549310	2.183537	-2.183542
Mg	3.274651	3.275308	-3.275314
Mg	7.640854	5.458851	-1.091771
Mg	9.823960	3.275308	-1.091771
Mg	5.457757	5.458851	-3.275314
O	3.375752	5.357149	-3.377006
O	7.741955	3.377011	-0.990069
O	5.356656	3.377011	-3.377006
O	5.558858	5.560543	-1.193464
O	9.722859	5.357149	-0.990069
O	5.558858	7.540691	-3.173611
O	7.539753	7.540691	-1.193464
O	7.539753	5.560543	-3.173611
Lu	-4.366204	0.000000	-4.367080
Lu	-2.183098	-2.183542	-6.550622
Mg	-5.457757	-1.091771	-7.642393
Mg	-1.091554	1.091771	-5.458851
Mg	1.091552	-1.091771	-5.458851
Mg	-3.274651	1.091771	-7.642393
O	-5.356656	0.990069	-7.744086
O	-0.990453	-0.990069	-5.357149
O	-3.375752	-0.990069	-7.744086
O	-3.173550	1.193464	-5.560543
O	0.990451	0.990069	-5.357149
O	-3.173550	3.173611	-7.540691
O	-1.192656	3.173611	-5.560543
O	-1.192656	1.193464	-7.540691
Lu	0.000000	4.367080	-4.367080
Lu	2.183106	2.183537	-6.550622
Mg	-1.091553	3.275308	-7.642393
Mg	3.274650	5.458851	-5.458851
Mg	5.457756	3.275308	-5.458851
Mg	1.091553	5.458851	-7.642393
O	-0.990452	5.357149	-7.744086
O	3.375751	3.377011	-5.357149
O	0.990452	3.377011	-7.744086
O	1.192654	5.560543	-5.560543
O	5.356655	5.357149	-5.357149
O	1.192654	7.540691	-7.540691
O	3.173549	7.540691	-5.560543
O	3.173549	5.560543	-7.540691
Lu	4.366204	-4.367080	0.000000
Lu	6.549310	-6.550622	-2.183542
Mg	3.274651	-5.458851	-3.275314
Mg	7.640854	-3.275308	-1.091771
Mg	9.823960	-5.458851	-1.091771
Mg	5.457757	-3.275309	-3.275314
O	3.375752	-3.377011	-3.377006
O	7.741955	-5.357149	-0.990069
O	5.356656	-5.357149	-3.377006
O	5.558858	-3.173616	-1.193464
O	9.722859	-3.377011	-0.990069
O	5.558858	-1.193468	-3.173611
O	7.539753	-1.193468	-1.193464
O	7.539753	-3.173616	-3.173611
Lu	8.732408	0.000000	0.000000
Lu	10.915514	-2.183542	-2.183542
Mg	7.640855	-1.091771	-3.275314
Mg	12.007058	1.091771	-1.091771
Mg	14.190164	-1.091771	-1.091771
Mg	9.823961	1.091771	-3.275314
O	7.741956	0.990069	-3.377006
O	12.108159	-0.990069	-0.990069
O	9.722860	-0.990069	-3.377006
O	9.925062	1.193464	-1.193464
O	14.089063	0.990069	-0.990069
O	9.925062	3.173611	-3.173611
O	11.905957	3.173611	-1.193464
O	11.905957	1.193464	-3.173611
Lu	0.000000	-4.367080	-4.367080
Lu	2.183106	-6.550622	-6.550622
Mg	-1.091553	-5.458851	-7.642393
Mg	3.274650	-3.275308	-5.458851
Mg	5.457756	-5.458851	-5.458851
Mg	1.091553	-3.275309	-7.642393
O	-0.990452	-3.377011	-7.744086
O	3.375751	-5.357149	-5.357149
O	0.990452	-5.357149	-7.744086
O	1.192654	-3.173616	-5.560543
O	5.356655	-3.377011	-5.357149
O	1.192654	-1.193468	-7.540691
O	3.173549	-1.193468	-5.560543
O	3.173549	-3.173616	-7.540691
Lu	4.366204	0.000000	-4.367080
Lu	6.549310	-2.183542	-6.550622
Mg	3.274651	-1.091771	-7.642393
Mg	7.640854	1.091771	-5.458851
Mg	9.823960	-1.091771	-5.458851
Mg	5.457757	1.091771	-7.642393
O	3.375752	0.990069	-7.744086
O	7.741955	-0.990069	-5.357149
O	5.356656	-0.990069	-7.744086
O	5.558858	1.193464	-5.560543
O	9.722859	0.990069	-5.357149
O	5.558858	3.173611	-7.540691
O	7.539753	3.173611	-5.560543
O	7.539753	1.193464	-7.540691
