40

Be	1.700260	1.700260	1.700260
O	1.700260	1.700260	0.000000
O	0.000000	1.700260	1.700260
O	1.700260	0.000000	1.700260
Ru	0.000000	0.000000	0.000000
Be	1.700260	1.700260	5.100769
O	1.700260	1.700260	3.400509
O	0.000000	1.700260	5.100769
O	1.700260	0.000000	5.100769
Ru	0.000000	0.000000	3.400509
Be	1.700260	5.100769	1.700260
O	1.700260	5.100769	0.000000
O	0.000000	5.100769	1.700260
O	1.700260	3.400509	1.700260
Ru	0.000000	3.400509	0.000000
Be	1.700260	5.100769	5.100769
O	1.700260	5.100769	3.400509
O	0.000000	5.100769	5.100769
O	1.700260	3.400509	5.100769
Ru	0.000000	3.400509	3.400509
Be	5.100769	1.700260	1.700260
O	5.100769	1.700260	0.000000
O	3.400509	1.700260	1.700260
O	5.100769	0.000000	1.700260
Ru	3.400509	0.000000	0.000000
Be	5.100769	1.700260	5.100769
O	5.100769	1.700260	3.400509
O	3.400509	1.700260	5.100769
O	5.100769	0.000000	5.100769
Ru	3.400509	0.000000	3.400509
Be	5.100769	5.100769	1.700260
O	5.100769	5.100769	0.000000
O	3.400509	5.100769	1.700260
O	5.100769	3.400509	1.700260
Ru	3.400509	3.400509	0.000000
Be	5.100769	5.100769	5.100769
O	5.100769	5.100769	3.400509
O	3.400509	5.100769	5.100769
O	5.100769	3.400509	5.100769
Ru	3.400509	3.400509	3.400509
