112

O	3.799768	-1.066361	-1.066361
O	-1.066681	1.066361	-3.801001
O	1.066681	-1.066361	-3.801001
O	1.366543	1.367325	-1.367325
O	5.933140	1.066361	-1.066361
O	1.366543	3.500037	-3.500037
O	3.499916	3.500037	-1.367325
O	3.499916	1.367325	-3.500037
Sn	0.000000	0.000000	0.000000
Sn	2.433224	-2.433676	-2.433676
Y	-1.216612	-1.216838	-3.650514
Y	1.216612	1.216838	-3.650514
Y	6.083071	-1.216838	-1.216838
Y	3.649847	1.216838	-1.216838
O	8.666224	3.800996	-1.066361
O	3.799775	5.933718	-3.801001
O	5.933138	3.800996	-3.801001
O	6.233000	6.234682	-1.367325
O	10.799596	5.933718	-1.066361
O	6.233000	8.367394	-3.500037
O	8.366372	8.367394	-1.367325
O	8.366372	6.234682	-3.500037
Sn	4.866456	4.867357	0.000000
Sn	7.299681	2.433681	-2.433676
Y	3.649844	3.650519	-3.650514
Y	6.083069	6.084195	-3.650514
Y	10.949527	3.650519	-1.216838
Y	8.516303	6.084195	-1.216838
O	-1.066689	-1.066361	-5.933718
O	-5.933138	1.066361	-8.668358
O	-3.799775	-1.066361	-8.668358
O	-3.499913	1.367325	-6.234682
O	1.066684	1.066361	-5.933718
O	-3.499913	3.500037	-8.367394
O	-1.366541	3.500037	-6.234682
O	-1.366541	1.367325	-8.367394
Sn	-4.866456	0.000000	-4.867357
Sn	-2.433232	-2.433676	-7.301033
Y	-6.083069	-1.216838	-8.517871
Y	-3.649844	1.216838	-8.517871
Y	1.216615	-1.216838	-6.084195
Y	-1.216610	1.216838	-6.084195
O	3.799768	3.800996	-5.933718
O	-1.066681	5.933718	-8.668358
O	1.066681	3.800996	-8.668358
O	1.366543	6.234682	-6.234682
O	5.933140	5.933718	-5.933718
O	1.366543	8.367394	-8.367394
O	3.499916	8.367394	-6.234682
O	3.499916	6.234682	-8.367394
Sn	0.000000	4.867357	-4.867357
Sn	2.433224	2.433681	-7.301033
Y	-1.216612	3.650519	-8.517871
Y	1.216612	6.084195	-8.517871
Y	6.083071	3.650519	-6.084195
Y	3.649847	6.084195	-6.084195
O	8.666224	-5.933718	-1.066361
O	3.799775	-3.800996	-3.801001
O	5.933138	-5.933718	-3.801001
O	6.233000	-3.500032	-1.367325
O	10.799596	-3.800996	-1.066361
O	6.233000	-1.367320	-3.500037
O	8.366372	-1.367320	-1.367325
O	8.366372	-3.500032	-3.500037
Sn	4.866456	-4.867357	0.000000
Sn	7.299681	-7.301033	-2.433676
Y	3.649844	-6.084195	-3.650514
Y	6.083069	-3.650519	-3.650514
Y	10.949527	-6.084195	-1.216838
Y	8.516303	-3.650519	-1.216838
O	13.532680	-1.066361	-1.066361
O	8.666232	1.066361	-3.801001
O	10.799594	-1.066361	-3.801001
O	11.099456	1.367325	-1.367325
O	15.666053	1.066361	-1.066361
O	11.099456	3.500037	-3.500037
O	13.232828	3.500037	-1.367325
O	13.232828	1.367325	-3.500037
Sn	9.732913	0.000000	0.000000
Sn	12.166137	-2.433676	-2.433676
Y	8.516301	-1.216838	-3.650514
Y	10.949525	1.216838	-3.650514
Y	15.815984	-1.216838	-1.216838
Y	13.382759	1.216838	-1.216838
O	3.799768	-5.933718	-5.933718
O	-1.066681	-3.800996	-8.668358
O	1.066681	-5.933718	-8.668358
O	1.366543	-3.500032	-6.234682
O	5.933140	-3.800996	-5.933718
O	1.366543	-1.367320	-8.367394
O	3.499916	-1.367320	-6.234682
O	3.499916	-3.500032	-8.367394
Sn	0.000000	-4.867357	-4.867357
Sn	2.433224	-7.301033	-7.301033
Y	-1.216612	-6.084195	-8.517871
Y	1.216612	-3.650519	-8.517871
Y	6.083071	-6.084195	-6.084195
Y	3.649847	-3.650519	-6.084195
O	8.666224	-1.066361	-5.933718
O	3.799775	1.066361	-8.668358
O	5.933138	-1.066361	-8.668358
O	6.233000	1.367325	-6.234682
O	10.799596	1.066361	-5.933718
O	6.233000	3.500037	-8.367394
O	8.366372	3.500037	-6.234682
O	8.366372	1.367325	-8.367394
Sn	4.866456	0.000000	-4.867357
Sn	7.299681	-2.433676	-7.301033
Y	3.649844	-1.216838	-8.517871
Y	6.083069	1.216838	-8.517871
Y	10.949527	-1.216838	-6.084195
Y	8.516303	1.216838	-6.084195
