40

O	1.941570	1.941570	0.000000
O	0.000000	1.941570	1.941570
O	1.941570	0.000000	1.941570
Si	0.000000	0.000000	0.000000
Tc	1.941570	1.941570	1.941570
O	1.941570	1.941570	3.883131
O	0.000000	1.941570	5.824701
O	1.941570	0.000000	5.824701
Si	0.000000	0.000000	3.883131
Tc	1.941570	1.941570	5.824701
O	1.941570	5.824701	0.000000
O	0.000000	5.824701	1.941570
O	1.941570	3.883131	1.941570
Si	0.000000	3.883131	0.000000
Tc	1.941570	5.824701	1.941570
O	1.941570	5.824701	3.883131
O	0.000000	5.824701	5.824701
O	1.941570	3.883131	5.824701
Si	0.000000	3.883131	3.883131
Tc	1.941570	5.824701	5.824701
O	5.824701	1.941570	0.000000
O	3.883131	1.941570	1.941570
O	5.824701	0.000000	1.941570
Si	3.883131	0.000000	0.000000
Tc	5.824701	1.941570	1.941570
O	5.824701	1.941570	3.883131
O	3.883131	1.941570	5.824701
O	5.824701	0.000000	5.824701
Si	3.883131	0.000000	3.883131
Tc	5.824701	1.941570	5.824701
O	5.824701	5.824701	0.000000
O	3.883131	5.824701	1.941570
O	5.824701	3.883131	1.941570
Si	3.883131	3.883131	0.000000
Tc	5.824701	5.824701	1.941570
O	5.824701	5.824701	3.883131
O	3.883131	5.824701	5.824701
O	5.824701	3.883131	5.824701
Si	3.883131	3.883131	3.883131
Tc	5.824701	5.824701	5.824701
