40

B	0.000000	0.000000	0.000000
Li	1.845445	1.845445	1.845445
O	0.000000	1.845445	1.845445
O	1.845445	0.000000	1.845445
O	1.845445	1.845445	0.000000
B	0.000000	0.000000	3.690889
Li	1.845445	1.845445	5.536334
O	0.000000	1.845445	5.536334
O	1.845445	0.000000	5.536334
O	1.845445	1.845445	3.690889
B	0.000000	3.690889	0.000000
Li	1.845445	5.536334	1.845445
O	0.000000	5.536334	1.845445
O	1.845445	3.690889	1.845445
O	1.845445	5.536334	0.000000
B	0.000000	3.690889	3.690889
Li	1.845445	5.536334	5.536334
O	0.000000	5.536334	5.536334
O	1.845445	3.690889	5.536334
O	1.845445	5.536334	3.690889
B	3.690889	0.000000	0.000000
Li	5.536334	1.845445	1.845445
O	3.690889	1.845445	1.845445
O	5.536334	0.000000	1.845445
O	5.536334	1.845445	0.000000
B	3.690889	0.000000	3.690889
Li	5.536334	1.845445	5.536334
O	3.690889	1.845445	5.536334
O	5.536334	0.000000	5.536334
O	5.536334	1.845445	3.690889
B	3.690889	3.690889	0.000000
Li	5.536334	5.536334	1.845445
O	3.690889	5.536334	1.845445
O	5.536334	3.690889	1.845445
O	5.536334	5.536334	0.000000
B	3.690889	3.690889	3.690889
Li	5.536334	5.536334	5.536334
O	3.690889	5.536334	5.536334
O	5.536334	3.690889	5.536334
O	5.536334	5.536334	3.690889
