112

La	0.000000	0.000000	0.000000
La	2.347336	-2.343643	-2.343643
O	3.699865	-0.990840	-0.990840
O	-0.994807	0.990840	-3.696445
O	0.994807	-0.990840	-3.696445
O	1.352529	1.352802	-1.352802
O	5.689480	0.990840	-0.990840
O	1.352529	3.334483	-3.334483
O	3.342143	3.334483	-1.352802
O	3.342143	1.352802	-3.334483
Pt	-1.173668	-1.171821	-3.515464
Pt	3.521004	1.171821	-1.171821
Pt	5.868340	-1.171821	-1.171821
Pt	1.173668	1.171821	-3.515464
La	4.694672	4.687285	0.000000
La	7.042009	2.343643	-2.343643
O	8.394538	3.696445	-0.990840
O	3.699865	5.678126	-3.696445
O	5.689480	3.696445	-3.696445
O	6.047201	6.040088	-1.352802
O	10.384152	5.678126	-0.990840
O	6.047201	8.021768	-3.334483
O	8.036816	8.021768	-1.352802
O	8.036816	6.040088	-3.334483
Pt	3.521004	3.515464	-3.515464
Pt	8.215677	5.859107	-1.171821
Pt	10.563013	3.515464	-1.171821
Pt	5.868341	5.859107	-3.515464
La	-4.694672	0.000000	-4.687285
La	-2.347336	-2.343643	-7.030928
O	-0.994807	-0.990840	-5.678126
O	-5.689480	0.990840	-8.383730
O	-3.699865	-0.990840	-8.383730
O	-3.342143	1.352802	-6.040088
O	0.994807	0.990840	-5.678126
O	-3.342143	3.334483	-8.021768
O	-1.352529	3.334483	-6.040088
O	-1.352529	1.352802	-8.021768
Pt	-5.868341	-1.171821	-8.202749
Pt	-1.173668	1.171821	-5.859107
Pt	1.173668	-1.171821	-5.859107
Pt	-3.521004	1.171821	-8.202749
La	0.000000	4.687285	-4.687285
La	2.347336	2.343643	-7.030928
O	3.699865	3.696445	-5.678126
O	-0.994807	5.678126	-8.383730
O	0.994807	3.696445	-8.383730
O	1.352529	6.040088	-6.040088
O	5.689480	5.678126	-5.678126
O	1.352529	8.021768	-8.021768
O	3.342143	8.021768	-6.040088
O	3.342143	6.040088	-8.021768
Pt	-1.173668	3.515464	-8.202749
Pt	3.521004	5.859107	-5.859107
Pt	5.868340	3.515464	-5.859107
Pt	1.173668	5.859107	-8.202749
La	4.694672	-4.687285	0.000000
La	7.042009	-7.030928	-2.343643
O	8.394538	-5.678126	-0.990840
O	3.699865	-3.696445	-3.696445
O	5.689480	-5.678126	-3.696445
O	6.047201	-3.334483	-1.352802
O	10.384152	-3.696445	-0.990840
O	6.047201	-1.352802	-3.334483
O	8.036816	-1.352802	-1.352802
O	8.036816	-3.334483	-3.334483
Pt	3.521004	-5.859107	-3.515464
Pt	8.215677	-3.515464	-1.171821
Pt	10.563013	-5.859107	-1.171821
Pt	5.868341	-3.515464	-3.515464
La	9.389345	0.000000	0.000000
La	11.736681	-2.343643	-2.343643
O	13.089210	-0.990840	-0.990840
O	8.394538	0.990840	-3.696445
O	10.384152	-0.990840	-3.696445
O	10.741874	1.352802	-1.352802
O	15.078824	0.990840	-0.990840
O	10.741874	3.334483	-3.334483
O	12.731488	3.334483	-1.352802
O	12.731488	1.352802	-3.334483
Pt	8.215677	-1.171821	-3.515464
Pt	12.910349	1.171821	-1.171821
Pt	15.257685	-1.171821	-1.171821
Pt	10.563013	1.171821	-3.515464
La	0.000000	-4.687285	-4.687285
La	2.347336	-7.030928	-7.030928
O	3.699865	-5.678126	-5.678126
O	-0.994807	-3.696445	-8.383730
O	0.994807	-5.678126	-8.383730
O	1.352529	-3.334483	-6.040088
O	5.689480	-3.696445	-5.678126
O	1.352529	-1.352802	-8.021768
O	3.342143	-1.352802	-6.040088
O	3.342143	-3.334483	-8.021768
Pt	-1.173668	-5.859107	-8.202749
Pt	3.521004	-3.515464	-5.859107
Pt	5.868340	-5.859107	-5.859107
Pt	1.173668	-3.515464	-8.202749
La	4.694672	0.000000	-4.687285
La	7.042009	-2.343643	-7.030928
O	8.394538	-0.990840	-5.678126
O	3.699865	0.990840	-8.383730
O	5.689480	-0.990840	-8.383730
O	6.047201	1.352802	-6.040088
O	10.384152	0.990840	-5.678126
O	6.047201	3.334483	-8.021768
O	8.036816	3.334483	-6.040088
O	8.036816	1.352802	-8.021768
Pt	3.521004	-1.171821	-8.202749
Pt	8.215677	1.171821	-5.859107
Pt	10.563013	-1.171821	-5.859107
Pt	5.868341	1.171821	-8.202749
