112

O	3.583108	-1.073610	-1.073610
O	-1.073879	1.073610	-3.583984
O	1.073879	-1.073610	-3.583984
O	1.254614	1.255182	-1.255182
O	5.730876	1.073610	-1.073610
O	1.254614	3.402402	-3.402402
O	3.402373	1.255182	-3.402402
O	3.402373	3.402402	-1.255182
Si	0.000000	0.000000	0.000000
Si	2.328494	-2.328792	-2.328792
Tm	-1.164252	-1.164396	-3.493198
Tm	3.492745	1.164396	-1.164396
Tm	5.821239	-1.164396	-1.164396
Tm	1.164252	1.164396	-3.493198
O	8.240100	3.583981	-1.073610
O	3.583113	5.731201	-3.583984
O	5.730871	3.583981	-3.583984
O	5.911607	5.912773	-1.255182
O	10.387868	5.731201	-1.073610
O	5.911607	8.059993	-3.402402
O	8.059365	5.912773	-3.402402
O	8.059365	8.059993	-1.255182
Si	4.656992	4.657591	0.000000
Si	6.985486	2.328799	-2.328792
Tm	3.492740	3.493195	-3.493198
Tm	8.149737	5.821987	-1.164396
Tm	10.478231	3.493195	-1.164396
Tm	5.821244	5.821987	-3.493198
O	-1.073884	-1.073610	-5.731201
O	-5.730871	1.073610	-8.241575
O	-3.583113	-1.073610	-8.241575
O	-3.402378	1.255182	-5.912773
O	1.073884	1.073610	-5.731201
O	-3.402378	3.402402	-8.059993
O	-1.254620	1.255182	-8.059993
O	-1.254620	3.402402	-5.912773
Si	-4.656992	0.000000	-4.657591
Si	-2.328499	-2.328792	-6.986383
Tm	-5.821244	-1.164396	-8.150789
Tm	-1.164247	1.164396	-5.821987
Tm	1.164246	-1.164396	-5.821987
Tm	-3.492740	1.164396	-8.150789
O	3.583108	3.583981	-5.731201
O	-1.073879	5.731201	-8.241575
O	1.073879	3.583981	-8.241575
O	1.254614	5.912773	-5.912773
O	5.730876	5.731201	-5.731201
O	1.254614	8.059993	-8.059993
O	3.402373	5.912773	-8.059993
O	3.402373	8.059993	-5.912773
Si	0.000000	4.657591	-4.657591
Si	2.328494	2.328799	-6.986383
Tm	-1.164252	3.493195	-8.150789
Tm	3.492745	5.821987	-5.821987
Tm	5.821239	3.493195	-5.821987
Tm	1.164252	5.821987	-8.150789
O	8.240100	-5.731201	-1.073610
O	3.583113	-3.583981	-3.583984
O	5.730871	-5.731201	-3.583984
O	5.911607	-3.402409	-1.255182
O	10.387868	-3.583981	-1.073610
O	5.911607	-1.255189	-3.402402
O	8.059365	-3.402409	-3.402402
O	8.059365	-1.255189	-1.255182
Si	4.656992	-4.657591	0.000000
Si	6.985486	-6.986383	-2.328792
Tm	3.492740	-5.821987	-3.493198
Tm	8.149737	-3.493195	-1.164396
Tm	10.478231	-5.821987	-1.164396
Tm	5.821244	-3.493195	-3.493198
O	12.897092	-1.073610	-1.073610
O	8.240105	1.073610	-3.583984
O	10.387864	-1.073610	-3.583984
O	10.568599	1.255182	-1.255182
O	15.044861	1.073610	-1.073610
O	10.568599	3.402402	-3.402402
O	12.716357	1.255182	-3.402402
O	12.716357	3.402402	-1.255182
Si	9.313984	0.000000	0.000000
Si	11.642478	-2.328792	-2.328792
Tm	8.149733	-1.164396	-3.493198
Tm	12.806730	1.164396	-1.164396
Tm	15.135223	-1.164396	-1.164396
Tm	10.478236	1.164396	-3.493198
O	3.583108	-5.731201	-5.731201
O	-1.073879	-3.583981	-8.241575
O	1.073879	-5.731201	-8.241575
O	1.254614	-3.402409	-5.912773
O	5.730876	-3.583981	-5.731201
O	1.254614	-1.255189	-8.059993
O	3.402373	-3.402409	-8.059993
O	3.402373	-1.255189	-5.912773
Si	0.000000	-4.657591	-4.657591
Si	2.328494	-6.986383	-6.986383
Tm	-1.164252	-5.821987	-8.150789
Tm	3.492745	-3.493195	-5.821987
Tm	5.821239	-5.821987	-5.821987
Tm	1.164252	-3.493195	-8.150789
O	8.240100	-1.073610	-5.731201
O	3.583113	1.073610	-8.241575
O	5.730871	-1.073610	-8.241575
O	5.911607	1.255182	-5.912773
O	10.387868	1.073610	-5.731201
O	5.911607	3.402402	-8.059993
O	8.059365	1.255182	-8.059993
O	8.059365	3.402402	-5.912773
Si	4.656992	0.000000	-4.657591
Si	6.985486	-2.328792	-6.986383
Tm	3.492740	-1.164396	-8.150789
Tm	8.149737	1.164396	-5.821987
Tm	10.478231	-1.164396	-5.821987
Tm	5.821244	1.164396	-8.150789
