40

Ag	0.000000	0.000000	0.000000
O	2.219332	2.219332	0.000000
O	2.219332	0.000000	2.219332
O	0.000000	2.219332	2.219332
Sm	2.219332	2.219332	2.219332
Ag	0.000000	0.000000	4.438671
O	2.219332	2.219332	4.438671
O	2.219332	0.000000	6.658003
O	0.000000	2.219332	6.658003
Sm	2.219332	2.219332	6.658003
Ag	0.000000	4.438671	0.000000
O	2.219332	6.658003	0.000000
O	2.219332	4.438671	2.219332
O	0.000000	6.658003	2.219332
Sm	2.219332	6.658003	2.219332
Ag	0.000000	4.438671	4.438671
O	2.219332	6.658003	4.438671
O	2.219332	4.438671	6.658003
O	0.000000	6.658003	6.658003
Sm	2.219332	6.658003	6.658003
Ag	4.438671	0.000000	0.000000
O	6.658003	2.219332	0.000000
O	6.658003	0.000000	2.219332
O	4.438671	2.219332	2.219332
Sm	6.658003	2.219332	2.219332
Ag	4.438671	0.000000	4.438671
O	6.658003	2.219332	4.438671
O	6.658003	0.000000	6.658003
O	4.438671	2.219332	6.658003
Sm	6.658003	2.219332	6.658003
Ag	4.438671	4.438671	0.000000
O	6.658003	6.658003	0.000000
O	6.658003	4.438671	2.219332
O	4.438671	6.658003	2.219332
Sm	6.658003	6.658003	2.219332
Ag	4.438671	4.438671	4.438671
O	6.658003	6.658003	4.438671
O	6.658003	4.438671	6.658003
O	4.438671	6.658003	6.658003
Sm	6.658003	6.658003	6.658003
