40

Eu	2.151844	2.151844	2.151844
O	2.151844	2.151844	0.000000
O	0.000000	2.151844	2.151844
O	2.151844	0.000000	2.151844
Tl	0.000000	0.000000	0.000000
Eu	2.151844	2.151844	6.455524
O	2.151844	2.151844	4.303680
O	0.000000	2.151844	6.455524
O	2.151844	0.000000	6.455524
Tl	0.000000	0.000000	4.303680
Eu	2.151844	6.455524	2.151844
O	2.151844	6.455524	0.000000
O	0.000000	6.455524	2.151844
O	2.151844	4.303680	2.151844
Tl	0.000000	4.303680	0.000000
Eu	2.151844	6.455524	6.455524
O	2.151844	6.455524	4.303680
O	0.000000	6.455524	6.455524
O	2.151844	4.303680	6.455524
Tl	0.000000	4.303680	4.303680
Eu	6.455524	2.151844	2.151844
O	6.455524	2.151844	0.000000
O	4.303680	2.151844	2.151844
O	6.455524	0.000000	2.151844
Tl	4.303680	0.000000	0.000000
Eu	6.455524	2.151844	6.455524
O	6.455524	2.151844	4.303680
O	4.303680	2.151844	6.455524
O	6.455524	0.000000	6.455524
Tl	4.303680	0.000000	4.303680
Eu	6.455524	6.455524	2.151844
O	6.455524	6.455524	0.000000
O	4.303680	6.455524	2.151844
O	6.455524	4.303680	2.151844
Tl	4.303680	4.303680	0.000000
Eu	6.455524	6.455524	6.455524
O	6.455524	6.455524	4.303680
O	4.303680	6.455524	6.455524
O	6.455524	4.303680	6.455524
Tl	4.303680	4.303680	4.303680
