40

As	1.862496	1.862496	1.862496
Na	0.000000	0.000000	0.000000
O	0.000000	1.862496	1.862496
O	1.862496	0.000000	1.862496
O	1.862496	1.862496	0.000000
As	1.862496	1.862496	5.587489
Na	0.000000	0.000000	3.724993
O	0.000000	1.862496	5.587489
O	1.862496	0.000000	5.587489
O	1.862496	1.862496	3.724993
As	1.862496	5.587489	1.862496
Na	0.000000	3.724993	0.000000
O	0.000000	5.587489	1.862496
O	1.862496	3.724993	1.862496
O	1.862496	5.587489	0.000000
As	1.862496	5.587489	5.587489
Na	0.000000	3.724993	3.724993
O	0.000000	5.587489	5.587489
O	1.862496	3.724993	5.587489
O	1.862496	5.587489	3.724993
As	5.587489	1.862496	1.862496
Na	3.724993	0.000000	0.000000
O	3.724993	1.862496	1.862496
O	5.587489	0.000000	1.862496
O	5.587489	1.862496	0.000000
As	5.587489	1.862496	5.587489
Na	3.724993	0.000000	3.724993
O	3.724993	1.862496	5.587489
O	5.587489	0.000000	5.587489
O	5.587489	1.862496	3.724993
As	5.587489	5.587489	1.862496
Na	3.724993	3.724993	0.000000
O	3.724993	5.587489	1.862496
O	5.587489	3.724993	1.862496
O	5.587489	5.587489	0.000000
As	5.587489	5.587489	5.587489
Na	3.724993	3.724993	3.724993
O	3.724993	5.587489	5.587489
O	5.587489	3.724993	5.587489
O	5.587489	5.587489	3.724993
