112

B	0.000000	0.000000	0.000000
B	2.231673	-2.229221	-2.229221
O	0.872969	0.871506	-0.871506
O	1.358703	-1.357715	-3.100728
O	-1.358703	1.357715	-3.100728
O	3.104632	-1.357715	-1.357715
O	3.590376	3.586946	-0.871506
O	3.590376	0.871506	-3.586946
O	0.872970	3.586947	-3.586946
O	5.822039	1.357715	-1.357715
Pb	-1.115831	-1.114616	-3.343837
Pb	1.115831	1.114616	-3.343837
Pb	5.579177	-1.114616	-1.114616
Pb	3.347504	1.114616	-1.114616
B	4.463340	4.458450	0.000000
B	6.695012	2.229229	-2.229221
O	5.336309	5.329956	-0.871506
O	5.822043	3.100735	-3.100728
O	3.104636	5.816165	-3.100728
O	7.567972	3.100735	-1.357715
O	8.053715	8.045396	-0.871506
O	8.053715	5.329956	-3.586946
O	5.336309	8.045396	-3.586946
O	10.285378	5.816165	-1.357715
Pb	3.347508	3.343834	-3.343837
Pb	5.579171	5.573066	-3.343837
Pb	10.042516	3.343834	-1.114616
Pb	7.810844	5.573066	-1.114616
B	-4.463340	0.000000	-4.458450
B	-2.231667	-2.229221	-6.687671
O	-3.590370	0.871506	-5.329956
O	-3.104636	-1.357715	-7.559177
O	-5.822043	1.357715	-7.559177
O	-1.358707	-1.357715	-5.816165
O	-0.872964	3.586946	-5.329956
O	-0.872964	0.871506	-8.045396
O	-3.590370	3.586947	-8.045396
O	1.358699	1.357715	-5.816165
Pb	-5.579171	-1.114616	-7.802287
Pb	-3.347508	1.114616	-7.802287
Pb	1.115837	-1.114616	-5.573066
Pb	-1.115835	1.114616	-5.573066
B	0.000000	4.458450	-4.458450
B	2.231673	2.229229	-6.687671
O	0.872969	5.329956	-5.329956
O	1.358703	3.100735	-7.559177
O	-1.358703	5.816165	-7.559177
O	3.104632	3.100735	-5.816165
O	3.590376	8.045396	-5.329956
O	3.590376	5.329956	-8.045396
O	0.872970	8.045396	-8.045396
O	5.822039	5.816165	-5.816165
Pb	-1.115831	3.343834	-7.802287
Pb	1.115831	5.573066	-7.802287
Pb	5.579177	3.343834	-5.573066
Pb	3.347504	5.573066	-5.573066
B	4.463340	-4.458450	0.000000
B	6.695012	-6.687671	-2.229221
O	5.336309	-3.586944	-0.871506
O	5.822043	-5.816165	-3.100728
O	3.104636	-3.100735	-3.100728
O	7.567972	-5.816165	-1.357715
O	8.053715	-0.871503	-0.871506
O	8.053715	-3.586944	-3.586946
O	5.336309	-0.871503	-3.586946
O	10.285378	-3.100735	-1.357715
Pb	3.347508	-5.573066	-3.343837
Pb	5.579171	-3.343834	-3.343837
Pb	10.042516	-5.573066	-1.114616
Pb	7.810844	-3.343834	-1.114616
B	8.926679	0.000000	0.000000
B	11.158352	-2.229221	-2.229221
O	9.799649	0.871506	-0.871506
O	10.285382	-1.357715	-3.100728
O	7.567976	1.357715	-3.100728
O	12.031311	-1.357715	-1.357715
O	12.517055	3.586946	-0.871506
O	12.517055	0.871506	-3.586946
O	9.799649	3.586947	-3.586946
O	14.748718	1.357715	-1.357715
Pb	7.810848	-1.114616	-3.343837
Pb	10.042510	1.114616	-3.343837
Pb	14.505856	-1.114616	-1.114616
Pb	12.274183	1.114616	-1.114616
B	0.000000	-4.458450	-4.458450
B	2.231673	-6.687671	-6.687671
O	0.872969	-3.586944	-5.329956
O	1.358703	-5.816165	-7.559177
O	-1.358703	-3.100735	-7.559177
O	3.104632	-5.816165	-5.816165
O	3.590376	-0.871503	-5.329956
O	3.590376	-3.586944	-8.045396
O	0.872970	-0.871503	-8.045396
O	5.822039	-3.100735	-5.816165
Pb	-1.115831	-5.573066	-7.802287
Pb	1.115831	-3.343834	-7.802287
Pb	5.579177	-5.573066	-5.573066
Pb	3.347504	-3.343834	-5.573066
B	4.463340	0.000000	-4.458450
B	6.695012	-2.229221	-6.687671
O	5.336309	0.871506	-5.329956
O	5.822043	-1.357715	-7.559177
O	3.104636	1.357715	-7.559177
O	7.567972	-1.357715	-5.816165
O	8.053715	3.586946	-5.329956
O	8.053715	0.871506	-8.045396
O	5.336309	3.586947	-8.045396
O	10.285378	1.357715	-5.816165
Pb	3.347508	-1.114616	-7.802287
Pb	5.579171	1.114616	-7.802287
Pb	10.042516	-1.114616	-5.573066
Pb	7.810844	1.114616	-5.573066
