440

Na	2.167129	2.201939	2.201939
Na	4.369067	0.000000	4.369067
Na	2.167129	6.536196	6.536196
Na	4.369067	4.369067	0.000000
Na	6.571006	2.201939	6.536196
Na	0.000000	0.000000	0.000000
Na	6.571006	6.536196	2.201939
Ga	1.076354	7.664916	3.292714
Ga	3.277580	1.091487	7.646648
Ga	3.295849	3.292714	5.445421
Ga	1.076354	1.073219	5.445421
Ga	1.076354	3.292714	7.664916
Ga	3.295849	5.445421	3.292714
Ga	3.277580	7.646648	1.091487
Ga	1.076354	5.445421	1.073219
Ga	5.460554	7.646648	7.646648
Ga	7.661781	1.073219	3.292714
Ga	7.661781	3.292714	1.073219
Ga	5.460554	1.091487	1.091487
Ga	5.442286	3.292714	3.292714
Ga	7.661781	5.445421	7.664916
Ga	7.661781	7.664916	5.445421
Ga	5.442286	5.445421	5.445421
O	3.437734	0.931333	0.931333
O	5.293429	3.441262	5.296873
O	5.300401	0.931333	7.806801
O	3.444706	3.441262	3.441262
O	3.087166	1.281902	5.613466
O	1.244398	7.456233	1.281902
O	1.244398	1.281902	7.456233
O	3.087166	7.456233	3.124669
O	3.444706	5.296873	5.296873
O	5.300401	7.806801	0.931333
O	5.293429	5.296873	3.441262
O	3.437734	7.806801	7.806801
O	3.087166	5.613466	1.281902
O	1.257465	3.111602	5.626532
O	1.257465	5.626532	3.111602
O	3.087166	3.124669	7.456233
O	7.810329	0.924362	5.296873
O	0.927806	3.441262	0.924362
O	0.927806	0.924362	3.441262
O	7.810329	3.441262	7.813773
O	7.493736	1.281902	1.281902
O	5.650969	7.456233	5.613466
O	5.650969	1.281902	3.124669
O	7.493736	7.456233	7.456233
O	7.810329	5.296873	0.924362
O	0.927806	7.813773	5.296873
O	0.927806	5.296873	7.813773
O	7.810329	7.813773	3.441262
O	7.480670	5.626532	5.626532
O	5.650969	3.124669	1.281902
O	5.650969	5.613466	7.456233
O	7.480670	3.111602	3.111602
Na	2.167129	2.201939	10.940074
Na	4.369067	0.000000	13.107202
Na	2.167129	6.536196	15.274331
Na	4.369067	4.369067	8.738135
Na	6.571006	2.201939	15.274331
Na	0.000000	0.000000	8.738135
Na	6.571006	6.536196	10.940074
Ga	1.076354	7.664916	12.030848
Ga	3.277580	1.091487	16.384782
Ga	3.295849	3.292714	14.183556
Ga	1.076354	1.073219	14.183556
Ga	1.076354	3.292714	16.403051
Ga	3.295849	5.445421	12.030848
Ga	3.277580	7.646648	9.829622
Ga	1.076354	5.445421	9.811354
Ga	5.460554	7.646648	16.384782
Ga	7.661781	1.073219	12.030848
Ga	7.661781	3.292714	9.811354
Ga	5.460554	1.091487	9.829622
Ga	5.442286	3.292714	12.030848
Ga	7.661781	5.445421	16.403051
Ga	7.661781	7.664916	14.183556
Ga	5.442286	5.445421	14.183556
O	3.437734	0.931333	9.669468
O	5.293429	3.441262	14.035008
O	5.300401	0.931333	16.544936
O	3.444706	3.441262	12.179396
O	3.087166	1.281902	14.351600
O	1.244398	7.456233	10.020036
O	1.244398	1.281902	16.194368
O	3.087166	7.456233	11.862804
O	3.444706	5.296873	14.035008
O	5.300401	7.806801	9.669468
O	5.293429	5.296873	12.179396
O	3.437734	7.806801	16.544936
O	3.087166	5.613466	10.020036
O	1.257465	3.111602	14.364667
O	1.257465	5.626532	11.849737
O	3.087166	3.124669	16.194368
O	7.810329	0.924362	14.035008
O	0.927806	3.441262	9.662497
O	0.927806	0.924362	12.179396
O	7.810329	3.441262	16.551908
O	7.493736	1.281902	10.020036
O	5.650969	7.456233	14.351600
O	5.650969	1.281902	11.862804
O	7.493736	7.456233	16.194368
O	7.810329	5.296873	9.662497
O	0.927806	7.813773	14.035008
O	0.927806	5.296873	16.551908
O	7.810329	7.813773	12.179396
O	7.480670	5.626532	14.364667
O	5.650969	3.124669	10.020036
O	5.650969	5.613466	16.194368
O	7.480670	3.111602	11.849737
Na	2.167129	10.940074	2.201939
Na	4.369067	8.738135	4.369067
Na	2.167129	15.274331	6.536196
Na	4.369067	13.107202	0.000000
Na	6.571006	10.940074	6.536196
Na	0.000000	8.738135	0.000000
Na	6.571006	15.274331	2.201939
Ga	1.076354	16.403051	3.292714
Ga	3.277580	9.829622	7.646648
Ga	3.295849	12.030848	5.445421
Ga	1.076354	9.811354	5.445421
Ga	1.076354	12.030848	7.664916
Ga	3.295849	14.183556	3.292714
Ga	3.277580	16.384782	1.091487
Ga	1.076354	14.183556	1.073219
Ga	5.460554	16.384782	7.646648
Ga	7.661781	9.811354	3.292714
Ga	7.661781	12.030848	1.073219
Ga	5.460554	9.829622	1.091487
Ga	5.442286	12.030848	3.292714
Ga	7.661781	14.183556	7.664916
Ga	7.661781	16.403051	5.445421
Ga	5.442286	14.183556	5.445421
O	3.437734	9.669468	0.931333
O	5.293429	12.179396	5.296873
O	5.300401	9.669468	7.806801
O	3.444706	12.179396	3.441262
O	3.087166	10.020036	5.613466
O	1.244398	16.194368	1.281902
O	1.244398	10.020036	7.456233
O	3.087166	16.194368	3.124669
O	3.444706	14.035008	5.296873
O	5.300401	16.544936	0.931333
O	5.293429	14.035008	3.441262
O	3.437734	16.544936	7.806801
O	3.087166	14.351600	1.281902
O	1.257465	11.849737	5.626532
O	1.257465	14.364667	3.111602
O	3.087166	11.862804	7.456233
O	7.810329	9.662497	5.296873
O	0.927806	12.179396	0.924362
O	0.927806	9.662497	3.441262
O	7.810329	12.179396	7.813773
O	7.493736	10.020036	1.281902
O	5.650969	16.194368	5.613466
O	5.650969	10.020036	3.124669
O	7.493736	16.194368	7.456233
O	7.810329	14.035008	0.924362
O	0.927806	16.551908	5.296873
O	0.927806	14.035008	7.813773
O	7.810329	16.551908	3.441262
O	7.480670	14.364667	5.626532
O	5.650969	11.862804	1.281902
O	5.650969	14.351600	7.456233
O	7.480670	11.849737	3.111602
Na	2.167129	10.940074	10.940074
Na	4.369067	8.738135	13.107202
Na	2.167129	15.274331	15.274331
Na	4.369067	13.107202	8.738135
Na	6.571006	10.940074	15.274331
Na	0.000000	8.738135	8.738135
Na	6.571006	15.274331	10.940074
Ga	1.076354	16.403051	12.030848
Ga	3.277580	9.829622	16.384782
Ga	3.295849	12.030848	14.183556
Ga	1.076354	9.811354	14.183556
Ga	1.076354	12.030848	16.403051
Ga	3.295849	14.183556	12.030848
Ga	3.277580	16.384782	9.829622
Ga	1.076354	14.183556	9.811354
Ga	5.460554	16.384782	16.384782
Ga	7.661781	9.811354	12.030848
Ga	7.661781	12.030848	9.811354
Ga	5.460554	9.829622	9.829622
Ga	5.442286	12.030848	12.030848
Ga	7.661781	14.183556	16.403051
Ga	7.661781	16.403051	14.183556
Ga	5.442286	14.183556	14.183556
O	3.437734	9.669468	9.669468
O	5.293429	12.179396	14.035008
O	5.300401	9.669468	16.544936
O	3.444706	12.179396	12.179396
O	3.087166	10.020036	14.351600
O	1.244398	16.194368	10.020036
O	1.244398	10.020036	16.194368
O	3.087166	16.194368	11.862804
O	3.444706	14.035008	14.035008
O	5.300401	16.544936	9.669468
O	5.293429	14.035008	12.179396
O	3.437734	16.544936	16.544936
O	3.087166	14.351600	10.020036
O	1.257465	11.849737	14.364667
O	1.257465	14.364667	11.849737
O	3.087166	11.862804	16.194368
O	7.810329	9.662497	14.035008
O	0.927806	12.179396	9.662497
O	0.927806	9.662497	12.179396
O	7.810329	12.179396	16.551908
O	7.493736	10.020036	10.020036
O	5.650969	16.194368	14.351600
O	5.650969	10.020036	11.862804
O	7.493736	16.194368	16.194368
O	7.810329	14.035008	9.662497
O	0.927806	16.551908	14.035008
O	0.927806	14.035008	16.551908
O	7.810329	16.551908	12.179396
O	7.480670	14.364667	14.364667
O	5.650969	11.862804	10.020036
O	5.650969	14.351600	16.194368
O	7.480670	11.849737	11.849737
Na	10.905263	2.201939	2.201939
Na	13.107202	0.000000	4.369067
Na	10.905263	6.536196	6.536196
Na	13.107202	4.369067	0.000000
Na	15.309141	2.201939	6.536196
Na	8.738135	0.000000	0.000000
Na	15.309141	6.536196	2.201939
Ga	9.814489	7.664916	3.292714
Ga	12.015715	1.091487	7.646648
Ga	12.033983	3.292714	5.445421
Ga	9.814489	1.073219	5.445421
Ga	9.814489	3.292714	7.664916
Ga	12.033983	5.445421	3.292714
Ga	12.015715	7.646648	1.091487
Ga	9.814489	5.445421	1.073219
Ga	14.198689	7.646648	7.646648
Ga	16.399916	1.073219	3.292714
Ga	16.399916	3.292714	1.073219
Ga	14.198689	1.091487	1.091487
Ga	14.180421	3.292714	3.292714
Ga	16.399916	5.445421	7.664916
Ga	16.399916	7.664916	5.445421
Ga	14.180421	5.445421	5.445421
O	12.175869	0.931333	0.931333
O	14.031564	3.441262	5.296873
O	14.038535	0.931333	7.806801
O	12.182840	3.441262	3.441262
O	11.825300	1.281902	5.613466
O	9.982533	7.456233	1.281902
O	9.982533	1.281902	7.456233
O	11.825300	7.456233	3.124669
O	12.182840	5.296873	5.296873
O	14.038535	7.806801	0.931333
O	14.031564	5.296873	3.441262
O	12.175869	7.806801	7.806801
O	11.825300	5.613466	1.281902
O	9.995600	3.111602	5.626532
O	9.995600	5.626532	3.111602
O	11.825300	3.124669	7.456233
O	16.548464	0.924362	5.296873
O	9.665940	3.441262	0.924362
O	9.665940	0.924362	3.441262
O	16.548464	3.441262	7.813773
O	16.231871	1.281902	1.281902
O	14.389104	7.456233	5.613466
O	14.389104	1.281902	3.124669
O	16.231871	7.456233	7.456233
O	16.548464	5.296873	0.924362
O	9.665940	7.813773	5.296873
O	9.665940	5.296873	7.813773
O	16.548464	7.813773	3.441262
O	16.218804	5.626532	5.626532
O	14.389104	3.124669	1.281902
O	14.389104	5.613466	7.456233
O	16.218804	3.111602	3.111602
Na	10.905263	2.201939	10.940074
Na	13.107202	0.000000	13.107202
Na	10.905263	6.536196	15.274331
Na	13.107202	4.369067	8.738135
Na	15.309141	2.201939	15.274331
Na	8.738135	0.000000	8.738135
Na	15.309141	6.536196	10.940074
Ga	9.814489	7.664916	12.030848
Ga	12.015715	1.091487	16.384782
Ga	12.033983	3.292714	14.183556
Ga	9.814489	1.073219	14.183556
Ga	9.814489	3.292714	16.403051
Ga	12.033983	5.445421	12.030848
Ga	12.015715	7.646648	9.829622
Ga	9.814489	5.445421	9.811354
Ga	14.198689	7.646648	16.384782
Ga	16.399916	1.073219	12.030848
Ga	16.399916	3.292714	9.811354
Ga	14.198689	1.091487	9.829622
Ga	14.180421	3.292714	12.030848
Ga	16.399916	5.445421	16.403051
Ga	16.399916	7.664916	14.183556
Ga	14.180421	5.445421	14.183556
O	12.175869	0.931333	9.669468
O	14.031564	3.441262	14.035008
O	14.038535	0.931333	16.544936
O	12.182840	3.441262	12.179396
O	11.825300	1.281902	14.351600
O	9.982533	7.456233	10.020036
O	9.982533	1.281902	16.194368
O	11.825300	7.456233	11.862804
O	12.182840	5.296873	14.035008
O	14.038535	7.806801	9.669468
O	14.031564	5.296873	12.179396
O	12.175869	7.806801	16.544936
O	11.825300	5.613466	10.020036
O	9.995600	3.111602	14.364667
O	9.995600	5.626532	11.849737
O	11.825300	3.124669	16.194368
O	16.548464	0.924362	14.035008
O	9.665940	3.441262	9.662497
O	9.665940	0.924362	12.179396
O	16.548464	3.441262	16.551908
O	16.231871	1.281902	10.020036
O	14.389104	7.456233	14.351600
O	14.389104	1.281902	11.862804
O	16.231871	7.456233	16.194368
O	16.548464	5.296873	9.662497
O	9.665940	7.813773	14.035008
O	9.665940	5.296873	16.551908
O	16.548464	7.813773	12.179396
O	16.218804	5.626532	14.364667
O	14.389104	3.124669	10.020036
O	14.389104	5.613466	16.194368
O	16.218804	3.111602	11.849737
Na	10.905263	10.940074	2.201939
Na	13.107202	8.738135	4.369067
Na	10.905263	15.274331	6.536196
Na	13.107202	13.107202	0.000000
Na	15.309141	10.940074	6.536196
Na	8.738135	8.738135	0.000000
Na	15.309141	15.274331	2.201939
Ga	9.814489	16.403051	3.292714
Ga	12.015715	9.829622	7.646648
Ga	12.033983	12.030848	5.445421
Ga	9.814489	9.811354	5.445421
Ga	9.814489	12.030848	7.664916
Ga	12.033983	14.183556	3.292714
Ga	12.015715	16.384782	1.091487
Ga	9.814489	14.183556	1.073219
Ga	14.198689	16.384782	7.646648
Ga	16.399916	9.811354	3.292714
Ga	16.399916	12.030848	1.073219
Ga	14.198689	9.829622	1.091487
Ga	14.180421	12.030848	3.292714
Ga	16.399916	14.183556	7.664916
Ga	16.399916	16.403051	5.445421
Ga	14.180421	14.183556	5.445421
O	12.175869	9.669468	0.931333
O	14.031564	12.179396	5.296873
O	14.038535	9.669468	7.806801
O	12.182840	12.179396	3.441262
O	11.825300	10.020036	5.613466
O	9.982533	16.194368	1.281902
O	9.982533	10.020036	7.456233
O	11.825300	16.194368	3.124669
O	12.182840	14.035008	5.296873
O	14.038535	16.544936	0.931333
O	14.031564	14.035008	3.441262
O	12.175869	16.544936	7.806801
O	11.825300	14.351600	1.281902
O	9.995600	11.849737	5.626532
O	9.995600	14.364667	3.111602
O	11.825300	11.862804	7.456233
O	16.548464	9.662497	5.296873
O	9.665940	12.179396	0.924362
O	9.665940	9.662497	3.441262
O	16.548464	12.179396	7.813773
O	16.231871	10.020036	1.281902
O	14.389104	16.194368	5.613466
O	14.389104	10.020036	3.124669
O	16.231871	16.194368	7.456233
O	16.548464	14.035008	0.924362
O	9.665940	16.551908	5.296873
O	9.665940	14.035008	7.813773
O	16.548464	16.551908	3.441262
O	16.218804	14.364667	5.626532
O	14.389104	11.862804	1.281902
O	14.389104	14.351600	7.456233
O	16.218804	11.849737	3.111602
Na	10.905263	10.940074	10.940074
Na	13.107202	8.738135	13.107202
Na	10.905263	15.274331	15.274331
Na	13.107202	13.107202	8.738135
Na	15.309141	10.940074	15.274331
Na	8.738135	8.738135	8.738135
Na	15.309141	15.274331	10.940074
Ga	9.814489	16.403051	12.030848
Ga	12.015715	9.829622	16.384782
Ga	12.033983	12.030848	14.183556
Ga	9.814489	9.811354	14.183556
Ga	9.814489	12.030848	16.403051
Ga	12.033983	14.183556	12.030848
Ga	12.015715	16.384782	9.829622
Ga	9.814489	14.183556	9.811354
Ga	14.198689	16.384782	16.384782
Ga	16.399916	9.811354	12.030848
Ga	16.399916	12.030848	9.811354
Ga	14.198689	9.829622	9.829622
Ga	14.180421	12.030848	12.030848
Ga	16.399916	14.183556	16.403051
Ga	16.399916	16.403051	14.183556
Ga	14.180421	14.183556	14.183556
O	12.175869	9.669468	9.669468
O	14.031564	12.179396	14.035008
O	14.038535	9.669468	16.544936
O	12.182840	12.179396	12.179396
O	11.825300	10.020036	14.351600
O	9.982533	16.194368	10.020036
O	9.982533	10.020036	16.194368
O	11.825300	16.194368	11.862804
O	12.182840	14.035008	14.035008
O	14.038535	16.544936	9.669468
O	14.031564	14.035008	12.179396
O	12.175869	16.544936	16.544936
O	11.825300	14.351600	10.020036
O	9.995600	11.849737	14.364667
O	9.995600	14.364667	11.849737
O	11.825300	11.862804	16.194368
O	16.548464	9.662497	14.035008
O	9.665940	12.179396	9.662497
O	9.665940	9.662497	12.179396
O	16.548464	12.179396	16.551908
O	16.231871	10.020036	10.020036
O	14.389104	16.194368	14.351600
O	14.389104	10.020036	11.862804
O	16.231871	16.194368	16.194368
O	16.548464	14.035008	9.662497
O	9.665940	16.551908	14.035008
O	9.665940	14.035008	16.551908
O	16.548464	16.551908	12.179396
O	16.218804	14.364667	14.364667
O	14.389104	11.862804	10.020036
O	14.389104	14.351600	16.194368
O	16.218804	11.849737	11.849737
