40

F	0.000000	1.949831	1.949831
F	1.949831	0.000000	1.949831
F	1.949831	1.949831	0.000000
O	1.949831	1.949831	1.949831
Rh	0.000000	0.000000	0.000000
F	0.000000	1.949831	5.849493
F	1.949831	0.000000	5.849493
F	1.949831	1.949831	3.899662
O	1.949831	1.949831	5.849493
Rh	0.000000	0.000000	3.899662
F	0.000000	5.849493	1.949831
F	1.949831	3.899662	1.949831
F	1.949831	5.849493	0.000000
O	1.949831	5.849493	1.949831
Rh	0.000000	3.899662	0.000000
F	0.000000	5.849493	5.849493
F	1.949831	3.899662	5.849493
F	1.949831	5.849493	3.899662
O	1.949831	5.849493	5.849493
Rh	0.000000	3.899662	3.899662
F	3.899662	1.949831	1.949831
F	5.849493	0.000000	1.949831
F	5.849493	1.949831	0.000000
O	5.849493	1.949831	1.949831
Rh	3.899662	0.000000	0.000000
F	3.899662	1.949831	5.849493
F	5.849493	0.000000	5.849493
F	5.849493	1.949831	3.899662
O	5.849493	1.949831	5.849493
Rh	3.899662	0.000000	3.899662
F	3.899662	5.849493	1.949831
F	5.849493	3.899662	1.949831
F	5.849493	5.849493	0.000000
O	5.849493	5.849493	1.949831
Rh	3.899662	3.899662	0.000000
F	3.899662	5.849493	5.849493
F	5.849493	3.899662	5.849493
F	5.849493	5.849493	3.899662
O	5.849493	5.849493	5.849493
Rh	3.899662	3.899662	3.899662
