40

Ca	0.000000	0.000000	0.000000
Fe	1.888252	1.888252	1.888252
O	1.888252	1.888252	0.000000
O	1.888252	0.000000	1.888252
O	0.000000	1.888252	1.888252
Ca	0.000000	0.000000	3.776514
Fe	1.888252	1.888252	5.664766
O	1.888252	1.888252	3.776514
O	1.888252	0.000000	5.664766
O	0.000000	1.888252	5.664766
Ca	0.000000	3.776514	0.000000
Fe	1.888252	5.664766	1.888252
O	1.888252	5.664766	0.000000
O	1.888252	3.776514	1.888252
O	0.000000	5.664766	1.888252
Ca	0.000000	3.776514	3.776514
Fe	1.888252	5.664766	5.664766
O	1.888252	5.664766	3.776514
O	1.888252	3.776514	5.664766
O	0.000000	5.664766	5.664766
Ca	3.776514	0.000000	0.000000
Fe	5.664766	1.888252	1.888252
O	5.664766	1.888252	0.000000
O	5.664766	0.000000	1.888252
O	3.776514	1.888252	1.888252
Ca	3.776514	0.000000	3.776514
Fe	5.664766	1.888252	5.664766
O	5.664766	1.888252	3.776514
O	5.664766	0.000000	5.664766
O	3.776514	1.888252	5.664766
Ca	3.776514	3.776514	0.000000
Fe	5.664766	5.664766	1.888252
O	5.664766	5.664766	0.000000
O	5.664766	3.776514	1.888252
O	3.776514	5.664766	1.888252
Ca	3.776514	3.776514	3.776514
Fe	5.664766	5.664766	5.664766
O	5.664766	5.664766	3.776514
O	5.664766	3.776514	5.664766
O	3.776514	5.664766	5.664766
