40

Ce	0.000000	0.000000	0.000000
O	2.023390	0.000000	2.023390
O	0.000000	2.023390	2.023390
O	2.023390	2.023390	0.000000
Ta	2.023390	2.023390	2.023390
Ce	0.000000	0.000000	4.046780
O	2.023390	0.000000	6.070170
O	0.000000	2.023390	6.070170
O	2.023390	2.023390	4.046780
Ta	2.023390	2.023390	6.070170
Ce	0.000000	4.046780	0.000000
O	2.023390	4.046780	2.023390
O	0.000000	6.070170	2.023390
O	2.023390	6.070170	0.000000
Ta	2.023390	6.070170	2.023390
Ce	0.000000	4.046780	4.046780
O	2.023390	4.046780	6.070170
O	0.000000	6.070170	6.070170
O	2.023390	6.070170	4.046780
Ta	2.023390	6.070170	6.070170
Ce	4.046780	0.000000	0.000000
O	6.070170	0.000000	2.023390
O	4.046780	2.023390	2.023390
O	6.070170	2.023390	0.000000
Ta	6.070170	2.023390	2.023390
Ce	4.046780	0.000000	4.046780
O	6.070170	0.000000	6.070170
O	4.046780	2.023390	6.070170
O	6.070170	2.023390	4.046780
Ta	6.070170	2.023390	6.070170
Ce	4.046780	4.046780	0.000000
O	6.070170	4.046780	2.023390
O	4.046780	6.070170	2.023390
O	6.070170	6.070170	0.000000
Ta	6.070170	6.070170	2.023390
Ce	4.046780	4.046780	4.046780
O	6.070170	4.046780	6.070170
O	4.046780	6.070170	6.070170
O	6.070170	6.070170	4.046780
Ta	6.070170	6.070170	6.070170
