40

Cd	0.000000	0.000000	0.000000
O	0.000000	1.924610	1.924610
O	1.924610	0.000000	1.924610
O	1.924610	1.924610	0.000000
Zn	1.924610	1.924610	1.924610
Cd	0.000000	0.000000	3.849219
O	0.000000	1.924610	5.773829
O	1.924610	0.000000	5.773829
O	1.924610	1.924610	3.849219
Zn	1.924610	1.924610	5.773829
Cd	0.000000	3.849219	0.000000
O	0.000000	5.773829	1.924610
O	1.924610	3.849219	1.924610
O	1.924610	5.773829	0.000000
Zn	1.924610	5.773829	1.924610
Cd	0.000000	3.849219	3.849219
O	0.000000	5.773829	5.773829
O	1.924610	3.849219	5.773829
O	1.924610	5.773829	3.849219
Zn	1.924610	5.773829	5.773829
Cd	3.849219	0.000000	0.000000
O	3.849219	1.924610	1.924610
O	5.773829	0.000000	1.924610
O	5.773829	1.924610	0.000000
Zn	5.773829	1.924610	1.924610
Cd	3.849219	0.000000	3.849219
O	3.849219	1.924610	5.773829
O	5.773829	0.000000	5.773829
O	5.773829	1.924610	3.849219
Zn	5.773829	1.924610	5.773829
Cd	3.849219	3.849219	0.000000
O	3.849219	5.773829	1.924610
O	5.773829	3.849219	1.924610
O	5.773829	5.773829	0.000000
Zn	5.773829	5.773829	1.924610
Cd	3.849219	3.849219	3.849219
O	3.849219	5.773829	5.773829
O	5.773829	3.849219	5.773829
O	5.773829	5.773829	3.849219
Zn	5.773829	5.773829	5.773829
