112

Mg	0.873068	0.617352	1.512197
Mg	6.111473	4.321464	10.585381
Fe	3.492270	2.469408	3.024395
Fe	3.492270	2.469408	6.048789
Fe	0.873068	2.469408	4.536592
Fe	2.619203	0.000000	4.536592
O	5.167933	3.654280	8.951123
O	1.816607	1.284535	5.926734
O	2.619204	3.554622	4.536595
O	4.224399	1.284535	4.536595
O	4.365336	1.384193	7.560984
O	2.760142	3.654280	7.560984
O	1.816607	1.284535	3.146456
O	5.167933	3.654280	6.170845
Mg	0.873068	0.617352	7.560987
Mg	6.111473	4.321464	16.634171
Fe	3.492270	2.469408	9.073184
Fe	3.492270	2.469408	12.097579
Fe	0.873068	2.469408	10.585381
Fe	2.619203	0.000000	10.585381
O	5.167933	3.654280	14.999912
O	1.816607	1.284535	11.975523
O	2.619204	3.554622	10.585384
O	4.224399	1.284535	10.585384
O	4.365336	1.384193	13.609773
O	2.760142	3.654280	13.609773
O	1.816607	1.284535	9.195246
O	5.167933	3.654280	12.219634
Mg	2.619203	5.556168	4.536592
Mg	7.857608	9.260279	13.609776
Fe	5.238405	7.408223	6.048789
Fe	5.238405	7.408223	9.073184
Fe	2.619203	7.408223	7.560987
Fe	4.365338	4.938816	7.560987
O	6.914068	8.593096	11.975517
O	3.562743	6.223351	8.951129
O	4.365340	8.493438	7.560990
O	5.970534	6.223351	7.560990
O	6.111471	6.323009	10.585378
O	4.506277	8.593096	10.585378
O	3.562743	6.223351	6.170851
O	6.914068	8.593096	9.195240
Mg	2.619203	5.556168	10.585381
Mg	7.857608	9.260279	19.658566
Fe	5.238405	7.408223	12.097579
Fe	5.238405	7.408223	15.121974
Fe	2.619203	7.408223	13.609776
Fe	4.365338	4.938816	13.609776
O	6.914068	8.593096	18.024307
O	3.562743	6.223351	14.999918
O	4.365340	8.493438	13.609779
O	5.970534	6.223351	13.609779
O	6.111471	6.323009	16.634168
O	4.506277	8.593096	16.634168
O	3.562743	6.223351	12.219640
O	6.914068	8.593096	15.244029
Mg	6.111473	0.617352	4.536592
Mg	11.349879	4.321464	13.609776
Fe	8.730676	2.469408	6.048789
Fe	8.730676	2.469408	9.073184
Fe	6.111473	2.469408	7.560987
Fe	7.857608	0.000000	7.560987
O	10.406339	3.654280	11.975517
O	7.055013	1.284535	8.951129
O	7.857610	3.554622	7.560990
O	9.462804	1.284535	7.560990
O	9.603742	1.384193	10.585378
O	7.998548	3.654280	10.585378
O	7.055013	1.284535	6.170851
O	10.406339	3.654280	9.195240
Mg	6.111473	0.617352	10.585381
Mg	11.349879	4.321464	19.658566
Fe	8.730676	2.469408	12.097579
Fe	8.730676	2.469408	15.121974
Fe	6.111473	2.469408	13.609776
Fe	7.857608	0.000000	13.609776
O	10.406339	3.654280	18.024307
O	7.055013	1.284535	14.999918
O	7.857610	3.554622	13.609779
O	9.462804	1.284535	13.609779
O	9.603742	1.384193	16.634168
O	7.998548	3.654280	16.634168
O	7.055013	1.284535	12.219640
O	10.406339	3.654280	15.244029
Mg	7.857608	5.556168	7.560987
Mg	13.096014	9.260279	16.634171
Fe	10.476811	7.408223	9.073184
Fe	10.476811	7.408223	12.097579
Fe	7.857608	7.408223	10.585381
Fe	9.603743	4.938816	10.585381
O	12.152474	8.593096	14.999912
O	8.801148	6.223351	11.975523
O	9.603745	8.493438	10.585384
O	11.208939	6.223351	10.585384
O	11.349877	6.323009	13.609773
O	9.744683	8.593096	13.609773
O	8.801148	6.223351	9.195246
O	12.152474	8.593096	12.219634
Mg	7.857608	5.556168	13.609776
Mg	13.096014	9.260279	22.682960
Fe	10.476811	7.408223	15.121974
Fe	10.476811	7.408223	18.146368
Fe	7.857608	7.408223	16.634171
Fe	9.603743	4.938816	16.634171
O	12.152474	8.593096	21.048701
O	8.801148	6.223351	18.024313
O	9.603745	8.493438	16.634174
O	11.208939	6.223351	16.634174
O	11.349877	6.323009	19.658563
O	9.744683	8.593096	19.658563
O	8.801148	6.223351	15.244035
O	12.152474	8.593096	18.268424
