40

Mg	1.868057	1.868057	1.868057
Mn	0.000000	0.000000	0.000000
O	1.868057	0.000000	0.000000
O	0.000000	1.868057	0.000000
O	0.000000	0.000000	1.868057
Mg	1.868057	1.868057	5.604172
Mn	0.000000	0.000000	3.736115
O	1.868057	0.000000	3.736115
O	0.000000	1.868057	3.736115
O	0.000000	0.000000	5.604172
Mg	1.868057	5.604172	1.868057
Mn	0.000000	3.736115	0.000000
O	1.868057	3.736115	0.000000
O	0.000000	5.604172	0.000000
O	0.000000	3.736115	1.868057
Mg	1.868057	5.604172	5.604172
Mn	0.000000	3.736115	3.736115
O	1.868057	3.736115	3.736115
O	0.000000	5.604172	3.736115
O	0.000000	3.736115	5.604172
Mg	5.604172	1.868057	1.868057
Mn	3.736115	0.000000	0.000000
O	5.604172	0.000000	0.000000
O	3.736115	1.868057	0.000000
O	3.736115	0.000000	1.868057
Mg	5.604172	1.868057	5.604172
Mn	3.736115	0.000000	3.736115
O	5.604172	0.000000	3.736115
O	3.736115	1.868057	3.736115
O	3.736115	0.000000	5.604172
Mg	5.604172	5.604172	1.868057
Mn	3.736115	3.736115	0.000000
O	5.604172	3.736115	0.000000
O	3.736115	5.604172	0.000000
O	3.736115	3.736115	1.868057
Mg	5.604172	5.604172	5.604172
Mn	3.736115	3.736115	3.736115
O	5.604172	3.736115	3.736115
O	3.736115	5.604172	3.736115
O	3.736115	3.736115	5.604172
