112

O	-1.068056	1.067457	-3.809425
O	3.808346	-1.067457	-1.067457
O	1.068056	-1.067457	-3.809425
O	1.370145	1.370979	-1.370979
O	5.944458	1.067457	-1.067457
O	1.370145	3.505903	-3.505903
O	3.506257	3.505903	-1.370979
O	3.506257	1.370979	-3.505903
Sb	0.000000	0.000000	0.000000
Sb	2.438201	-2.438446	-2.438446
Tb	-1.219106	-1.219223	-3.657659
Tb	1.219105	1.219223	-3.657659
Tb	6.095508	-1.219223	-1.219223
Tb	3.657307	1.219223	-1.219223
O	3.808347	5.944343	-3.809425
O	8.684749	3.809428	-1.067457
O	5.944459	3.809428	-3.809425
O	6.246548	6.247865	-1.370979
O	10.820861	5.944343	-1.067457
O	6.246548	8.382789	-3.505903
O	8.382660	8.382789	-1.370979
O	8.382660	6.247865	-3.505903
Sb	4.876403	4.876886	0.000000
Sb	7.314604	2.438439	-2.438446
Tb	3.657297	3.657662	-3.657659
Tb	6.095508	6.096109	-3.657659
Tb	10.971910	3.657662	-1.219223
Tb	8.533709	6.096109	-1.219223
O	-5.944459	1.067457	-8.686311
O	-1.068057	-1.067457	-5.944343
O	-3.808347	-1.067457	-8.686311
O	-3.506258	1.370979	-6.247865
O	1.068055	1.067457	-5.944343
O	-3.506258	3.505903	-8.382789
O	-1.370146	3.505903	-6.247865
O	-1.370146	1.370979	-8.382789
Sb	-4.876403	0.000000	-4.876886
Sb	-2.438202	-2.438446	-7.315332
Tb	-6.095508	-1.219223	-8.534545
Tb	-3.657297	1.219223	-8.534545
Tb	1.219105	-1.219223	-6.096109
Tb	-1.219096	1.219223	-6.096109
O	-1.068056	5.944343	-8.686311
O	3.808346	3.809428	-5.944343
O	1.068056	3.809428	-8.686311
O	1.370145	6.247865	-6.247865
O	5.944458	5.944343	-5.944343
O	1.370145	8.382789	-8.382789
O	3.506257	8.382789	-6.247865
O	3.506257	6.247865	-8.382789
Sb	0.000000	4.876886	-4.876886
Sb	2.438201	2.438439	-7.315332
Tb	-1.219106	3.657662	-8.534545
Tb	1.219105	6.096109	-8.534545
Tb	6.095508	3.657662	-6.096109
Tb	3.657307	6.096109	-6.096109
O	3.808347	-3.809428	-3.809425
O	8.684749	-5.944343	-1.067457
O	5.944459	-5.944343	-3.809425
O	6.246548	-3.505906	-1.370979
O	10.820861	-3.809428	-1.067457
O	6.246548	-1.370982	-3.505903
O	8.382660	-1.370982	-1.370979
O	8.382660	-3.505906	-3.505903
Sb	4.876403	-4.876886	0.000000
Sb	7.314604	-7.315332	-2.438446
Tb	3.657297	-6.096109	-3.657659
Tb	6.095508	-3.657662	-3.657659
Tb	10.971910	-6.096109	-1.219223
Tb	8.533709	-3.657662	-1.219223
O	8.684750	1.067457	-3.809425
O	13.561152	-1.067457	-1.067457
O	10.820862	-1.067457	-3.809425
O	11.122951	1.370979	-1.370979
O	15.697264	1.067457	-1.067457
O	11.122951	3.505903	-3.505903
O	13.259063	3.505903	-1.370979
O	13.259063	1.370979	-3.505903
Sb	9.752806	0.000000	0.000000
Sb	12.191007	-2.438446	-2.438446
Tb	8.533700	-1.219223	-3.657659
Tb	10.971911	1.219223	-3.657659
Tb	15.848313	-1.219223	-1.219223
Tb	13.410112	1.219223	-1.219223
O	-1.068056	-3.809428	-8.686311
O	3.808346	-5.944343	-5.944343
O	1.068056	-5.944343	-8.686311
O	1.370145	-3.505906	-6.247865
O	5.944458	-3.809428	-5.944343
O	1.370145	-1.370982	-8.382789
O	3.506257	-1.370982	-6.247865
O	3.506257	-3.505906	-8.382789
Sb	0.000000	-4.876886	-4.876886
Sb	2.438201	-7.315332	-7.315332
Tb	-1.219106	-6.096109	-8.534545
Tb	1.219105	-3.657662	-8.534545
Tb	6.095508	-6.096109	-6.096109
Tb	3.657307	-3.657662	-6.096109
O	3.808347	1.067457	-8.686311
O	8.684749	-1.067457	-5.944343
O	5.944459	-1.067457	-8.686311
O	6.246548	1.370979	-6.247865
O	10.820861	1.067457	-5.944343
O	6.246548	3.505903	-8.382789
O	8.382660	3.505903	-6.247865
O	8.382660	1.370979	-8.382789
Sb	4.876403	0.000000	-4.876886
Sb	7.314604	-2.438446	-7.315332
Tb	3.657297	-1.219223	-8.534545
Tb	6.095508	1.219223	-8.534545
Tb	10.971910	-1.219223	-6.096109
Tb	8.533709	1.219223	-6.096109
