40

Ce	0.000000	0.000000	0.000000
Ga	1.958145	1.958145	1.958145
O	1.958145	1.958145	0.000000
O	1.958145	0.000000	1.958145
O	0.000000	1.958145	1.958145
Ce	0.000000	0.000000	3.916291
Ga	1.958145	1.958145	5.874436
O	1.958145	1.958145	3.916291
O	1.958145	0.000000	5.874436
O	0.000000	1.958145	5.874436
Ce	0.000000	3.916291	0.000000
Ga	1.958145	5.874436	1.958145
O	1.958145	5.874436	0.000000
O	1.958145	3.916291	1.958145
O	0.000000	5.874436	1.958145
Ce	0.000000	3.916291	3.916291
Ga	1.958145	5.874436	5.874436
O	1.958145	5.874436	3.916291
O	1.958145	3.916291	5.874436
O	0.000000	5.874436	5.874436
Ce	3.916291	0.000000	0.000000
Ga	5.874436	1.958145	1.958145
O	5.874436	1.958145	0.000000
O	5.874436	0.000000	1.958145
O	3.916291	1.958145	1.958145
Ce	3.916291	0.000000	3.916291
Ga	5.874436	1.958145	5.874436
O	5.874436	1.958145	3.916291
O	5.874436	0.000000	5.874436
O	3.916291	1.958145	5.874436
Ce	3.916291	3.916291	0.000000
Ga	5.874436	5.874436	1.958145
O	5.874436	5.874436	0.000000
O	5.874436	3.916291	1.958145
O	3.916291	5.874436	1.958145
Ce	3.916291	3.916291	3.916291
Ga	5.874436	5.874436	5.874436
O	5.874436	5.874436	3.916291
O	5.874436	3.916291	5.874436
O	3.916291	5.874436	5.874436
