40

F	0.000000	1.918325	1.918325
F	1.918325	0.000000	1.918325
F	1.918325	1.918325	0.000000
O	0.000000	0.000000	0.000000
V	1.918325	1.918325	1.918325
F	0.000000	1.918325	5.754974
F	1.918325	0.000000	5.754974
F	1.918325	1.918325	3.836650
O	0.000000	0.000000	3.836650
V	1.918325	1.918325	5.754974
F	0.000000	5.754974	1.918325
F	1.918325	3.836650	1.918325
F	1.918325	5.754974	0.000000
O	0.000000	3.836650	0.000000
V	1.918325	5.754974	1.918325
F	0.000000	5.754974	5.754974
F	1.918325	3.836650	5.754974
F	1.918325	5.754974	3.836650
O	0.000000	3.836650	3.836650
V	1.918325	5.754974	5.754974
F	3.836650	1.918325	1.918325
F	5.754974	0.000000	1.918325
F	5.754974	1.918325	0.000000
O	3.836650	0.000000	0.000000
V	5.754974	1.918325	1.918325
F	3.836650	1.918325	5.754974
F	5.754974	0.000000	5.754974
F	5.754974	1.918325	3.836650
O	3.836650	0.000000	3.836650
V	5.754974	1.918325	5.754974
F	3.836650	5.754974	1.918325
F	5.754974	3.836650	1.918325
F	5.754974	5.754974	0.000000
O	3.836650	3.836650	0.000000
V	5.754974	5.754974	1.918325
F	3.836650	5.754974	5.754974
F	5.754974	3.836650	5.754974
F	5.754974	5.754974	3.836650
O	3.836650	3.836650	3.836650
V	5.754974	5.754974	5.754974
