40

O	0.000000	2.100608	2.100608
O	2.100608	0.000000	2.100608
O	2.100608	2.100608	0.000000
Sb	2.100608	2.100608	2.100608
Sn	0.000000	0.000000	0.000000
O	0.000000	2.100608	6.301824
O	2.100608	0.000000	6.301824
O	2.100608	2.100608	4.201216
Sb	2.100608	2.100608	6.301824
Sn	0.000000	0.000000	4.201216
O	0.000000	6.301824	2.100608
O	2.100608	4.201216	2.100608
O	2.100608	6.301824	0.000000
Sb	2.100608	6.301824	2.100608
Sn	0.000000	4.201216	0.000000
O	0.000000	6.301824	6.301824
O	2.100608	4.201216	6.301824
O	2.100608	6.301824	4.201216
Sb	2.100608	6.301824	6.301824
Sn	0.000000	4.201216	4.201216
O	4.201216	2.100608	2.100608
O	6.301824	0.000000	2.100608
O	6.301824	2.100608	0.000000
Sb	6.301824	2.100608	2.100608
Sn	4.201216	0.000000	0.000000
O	4.201216	2.100608	6.301824
O	6.301824	0.000000	6.301824
O	6.301824	2.100608	4.201216
Sb	6.301824	2.100608	6.301824
Sn	4.201216	0.000000	4.201216
O	4.201216	6.301824	2.100608
O	6.301824	4.201216	2.100608
O	6.301824	6.301824	0.000000
Sb	6.301824	6.301824	2.100608
Sn	4.201216	4.201216	0.000000
O	4.201216	6.301824	6.301824
O	6.301824	4.201216	6.301824
O	6.301824	6.301824	4.201216
Sb	6.301824	6.301824	6.301824
Sn	4.201216	4.201216	4.201216
