40

Fe	0.000000	0.000000	0.000000
Mg	1.909616	1.909616	1.909616
O	1.909616	1.909616	0.000000
O	1.909616	0.000000	1.909616
O	0.000000	1.909616	1.909616
Fe	0.000000	0.000000	3.819231
Mg	1.909616	1.909616	5.728847
O	1.909616	1.909616	3.819231
O	1.909616	0.000000	5.728847
O	0.000000	1.909616	5.728847
Fe	0.000000	3.819231	0.000000
Mg	1.909616	5.728847	1.909616
O	1.909616	5.728847	0.000000
O	1.909616	3.819231	1.909616
O	0.000000	5.728847	1.909616
Fe	0.000000	3.819231	3.819231
Mg	1.909616	5.728847	5.728847
O	1.909616	5.728847	3.819231
O	1.909616	3.819231	5.728847
O	0.000000	5.728847	5.728847
Fe	3.819231	0.000000	0.000000
Mg	5.728847	1.909616	1.909616
O	5.728847	1.909616	0.000000
O	5.728847	0.000000	1.909616
O	3.819231	1.909616	1.909616
Fe	3.819231	0.000000	3.819231
Mg	5.728847	1.909616	5.728847
O	5.728847	1.909616	3.819231
O	5.728847	0.000000	5.728847
O	3.819231	1.909616	5.728847
Fe	3.819231	3.819231	0.000000
Mg	5.728847	5.728847	1.909616
O	5.728847	5.728847	0.000000
O	5.728847	3.819231	1.909616
O	3.819231	5.728847	1.909616
Fe	3.819231	3.819231	3.819231
Mg	5.728847	5.728847	5.728847
O	5.728847	5.728847	3.819231
O	5.728847	3.819231	5.728847
O	3.819231	5.728847	5.728847
