112

Cu	0.000000	0.000000	0.000000
Cu	2.377556	-2.366298	-2.366298
O	3.621434	-1.103924	-1.103924
O	-1.133678	1.103924	-3.628671
O	1.133678	-1.103924	-3.628671
O	1.243878	1.262374	-1.262374
O	5.888789	1.103924	-1.103924
O	1.243878	3.470222	-3.470222
O	3.511233	3.470222	-1.262374
O	3.511233	1.262374	-3.470222
Pu	-1.188778	-1.183149	-3.549447
Pu	3.566334	1.183149	-1.183149
Pu	5.943890	-1.183149	-1.183149
Pu	1.188778	1.183149	-3.549447
Cu	4.755112	4.732596	0.000000
Cu	7.132668	2.366298	-2.366298
O	8.376546	3.628671	-1.103924
O	3.621434	5.836520	-3.628671
O	5.888789	3.628671	-3.628671
O	5.998990	5.994969	-1.262374
O	10.643901	5.836520	-1.103924
O	5.998990	8.202817	-3.470222
O	8.266345	8.202817	-1.262374
O	8.266345	5.994969	-3.470222
Pu	3.566334	3.549447	-3.549447
Pu	8.321446	5.915744	-1.183149
Pu	10.699002	3.549447	-1.183149
Pu	5.943890	5.915744	-3.549447
Cu	-4.755112	0.000000	-4.732596
Cu	-2.377556	-2.366298	-7.098893
O	-1.133678	-1.103924	-5.836520
O	-5.888789	1.103924	-8.361267
O	-3.621434	-1.103924	-8.361267
O	-3.511233	1.262374	-5.994969
O	1.133678	1.103924	-5.836520
O	-3.511233	3.470222	-8.202817
O	-1.243878	3.470222	-5.994969
O	-1.243878	1.262374	-8.202817
Pu	-5.943890	-1.183149	-8.282042
Pu	-1.188778	1.183149	-5.915744
Pu	1.188778	-1.183149	-5.915744
Pu	-3.566334	1.183149	-8.282042
Cu	0.000000	4.732596	-4.732596
Cu	2.377556	2.366298	-7.098893
O	3.621434	3.628671	-5.836520
O	-1.133678	5.836520	-8.361267
O	1.133678	3.628671	-8.361267
O	1.243878	5.994969	-5.994969
O	5.888789	5.836520	-5.836520
O	1.243878	8.202817	-8.202817
O	3.511233	8.202817	-5.994969
O	3.511233	5.994969	-8.202817
Pu	-1.188778	3.549447	-8.282042
Pu	3.566334	5.915744	-5.915744
Pu	5.943890	3.549447	-5.915744
Pu	1.188778	5.915744	-8.282042
Cu	4.755112	-4.732596	0.000000
Cu	7.132668	-7.098893	-2.366298
O	8.376546	-5.836520	-1.103924
O	3.621434	-3.628671	-3.628671
O	5.888789	-5.836520	-3.628671
O	5.998990	-3.470222	-1.262374
O	10.643901	-3.628671	-1.103924
O	5.998990	-1.262374	-3.470222
O	8.266345	-1.262374	-1.262374
O	8.266345	-3.470222	-3.470222
Pu	3.566334	-5.915744	-3.549447
Pu	8.321446	-3.549447	-1.183149
Pu	10.699002	-5.915744	-1.183149
Pu	5.943890	-3.549447	-3.549447
Cu	9.510224	0.000000	0.000000
Cu	11.887780	-2.366298	-2.366298
O	13.131658	-1.103924	-1.103924
O	8.376546	1.103924	-3.628671
O	10.643901	-1.103924	-3.628671
O	10.754102	1.262374	-1.262374
O	15.399013	1.103924	-1.103924
O	10.754102	3.470222	-3.470222
O	13.021457	3.470222	-1.262374
O	13.021457	1.262374	-3.470222
Pu	8.321446	-1.183149	-3.549447
Pu	13.076558	1.183149	-1.183149
Pu	15.454113	-1.183149	-1.183149
Pu	10.699002	1.183149	-3.549447
Cu	0.000000	-4.732596	-4.732596
Cu	2.377556	-7.098893	-7.098893
O	3.621434	-5.836520	-5.836520
O	-1.133678	-3.628671	-8.361267
O	1.133678	-5.836520	-8.361267
O	1.243878	-3.470222	-5.994969
O	5.888789	-3.628671	-5.836520
O	1.243878	-1.262374	-8.202817
O	3.511233	-1.262374	-5.994969
O	3.511233	-3.470222	-8.202817
Pu	-1.188778	-5.915744	-8.282042
Pu	3.566334	-3.549447	-5.915744
Pu	5.943890	-5.915744	-5.915744
Pu	1.188778	-3.549447	-8.282042
Cu	4.755112	0.000000	-4.732596
Cu	7.132668	-2.366298	-7.098893
O	8.376546	-1.103924	-5.836520
O	3.621434	1.103924	-8.361267
O	5.888789	-1.103924	-8.361267
O	5.998990	1.262374	-5.994969
O	10.643901	1.103924	-5.836520
O	5.998990	3.470222	-8.202817
O	8.266345	3.470222	-5.994969
O	8.266345	1.262374	-8.202817
Pu	3.566334	-1.183149	-8.282042
Pu	8.321446	1.183149	-5.915744
Pu	10.699002	-1.183149	-5.915744
Pu	5.943890	1.183149	-8.282042
