112

Cu	0.000000	0.000000	0.000000
Cu	2.413213	-2.403627	-2.403627
O	-1.132031	1.094577	-3.712666
O	3.694385	-1.094577	-1.094577
O	1.132031	-1.094577	-3.712666
O	1.281182	1.309039	-1.309039
O	5.958446	1.094577	-1.094577
O	1.281182	3.498204	-3.498204
O	3.545233	1.309039	-3.498204
O	3.545233	3.498204	-1.309039
Pu	-1.206606	-1.201813	-3.605440
Pu	3.619809	1.201813	-1.201813
Pu	6.033022	-1.201813	-1.201813
Pu	1.206606	1.201813	-3.605440
Cu	4.826417	4.807249	0.000000
Cu	7.239630	2.403622	-2.403627
O	3.694386	5.901826	-3.712666
O	8.520802	3.712672	-1.094577
O	5.958448	3.712672	-3.712666
O	6.107599	6.116288	-1.309039
O	10.784863	5.901826	-1.094577
O	6.107599	8.305452	-3.498204
O	8.371651	6.116288	-3.498204
O	8.371651	8.305452	-1.309039
Pu	3.619811	3.605435	-3.605440
Pu	8.446226	6.009062	-1.201813
Pu	10.859439	3.605435	-1.201813
Pu	6.033024	6.009062	-3.605440
Cu	-4.826417	0.000000	-4.807249
Cu	-2.413204	-2.403627	-7.210875
O	-5.958448	1.094577	-8.519915
O	-1.132033	-1.094577	-5.901826
O	-3.694386	-1.094577	-8.519915
O	-3.545235	1.309039	-6.116288
O	1.132029	1.094577	-5.901826
O	-3.545235	3.498204	-8.305452
O	-1.281184	1.309039	-8.305452
O	-1.281184	3.498204	-6.116288
Pu	-6.033024	-1.201813	-8.412688
Pu	-1.206608	1.201813	-6.009062
Pu	1.206604	-1.201813	-6.009062
Pu	-3.619811	1.201813	-8.412688
Cu	0.000000	4.807249	-4.807249
Cu	2.413213	2.403622	-7.210875
O	-1.132031	5.901826	-8.519915
O	3.694385	3.712672	-5.901826
O	1.132031	3.712672	-8.519915
O	1.281182	6.116288	-6.116288
O	5.958446	5.901826	-5.901826
O	1.281182	8.305452	-8.305452
O	3.545233	6.116288	-8.305452
O	3.545233	8.305452	-6.116288
Pu	-1.206606	3.605435	-8.412688
Pu	3.619809	6.009062	-6.009062
Pu	6.033022	3.605435	-6.009062
Pu	1.206606	6.009062	-8.412688
Cu	4.826417	-4.807249	0.000000
Cu	7.239630	-7.210875	-2.403627
O	3.694386	-3.712672	-3.712666
O	8.520802	-5.901826	-1.094577
O	5.958448	-5.901826	-3.712666
O	6.107599	-3.498209	-1.309039
O	10.784863	-3.712672	-1.094577
O	6.107599	-1.309045	-3.498204
O	8.371651	-3.498209	-3.498204
O	8.371651	-1.309045	-1.309039
Pu	3.619811	-6.009062	-3.605440
Pu	8.446226	-3.605435	-1.201813
Pu	10.859439	-6.009062	-1.201813
Pu	6.033024	-3.605435	-3.605440
Cu	9.652834	0.000000	0.000000
Cu	12.066047	-2.403627	-2.403627
O	8.520804	1.094577	-3.712666
O	13.347219	-1.094577	-1.094577
O	10.784865	-1.094577	-3.712666
O	10.934016	1.309039	-1.309039
O	15.611281	1.094577	-1.094577
O	10.934016	3.498204	-3.498204
O	13.198068	1.309039	-3.498204
O	13.198068	3.498204	-1.309039
Pu	8.446228	-1.201813	-3.605440
Pu	13.272643	1.201813	-1.201813
Pu	15.685856	-1.201813	-1.201813
Pu	10.859441	1.201813	-3.605440
Cu	0.000000	-4.807249	-4.807249
Cu	2.413213	-7.210875	-7.210875
O	-1.132031	-3.712672	-8.519915
O	3.694385	-5.901826	-5.901826
O	1.132031	-5.901826	-8.519915
O	1.281182	-3.498209	-6.116288
O	5.958446	-3.712672	-5.901826
O	1.281182	-1.309045	-8.305452
O	3.545233	-3.498209	-8.305452
O	3.545233	-1.309045	-6.116288
Pu	-1.206606	-6.009062	-8.412688
Pu	3.619809	-3.605435	-6.009062
Pu	6.033022	-6.009062	-6.009062
Pu	1.206606	-3.605435	-8.412688
Cu	4.826417	0.000000	-4.807249
Cu	7.239630	-2.403627	-7.210875
O	3.694386	1.094577	-8.519915
O	8.520802	-1.094577	-5.901826
O	5.958448	-1.094577	-8.519915
O	6.107599	1.309039	-6.116288
O	10.784863	1.094577	-5.901826
O	6.107599	3.498204	-8.305452
O	8.371651	1.309039	-8.305452
O	8.371651	3.498204	-6.116288
Pu	3.619811	-1.201813	-8.412688
Pu	8.446226	1.201813	-6.009062
Pu	10.859439	-1.201813	-6.009062
Pu	6.033024	1.201813	-8.412688
