40

La	0.000000	0.000000	0.000000
O	1.970730	1.970730	0.000000
O	0.000000	1.970730	1.970730
O	1.970730	0.000000	1.970730
Ti	1.970730	1.970730	1.970730
La	0.000000	0.000000	3.941450
O	1.970730	1.970730	3.941450
O	0.000000	1.970730	5.912180
O	1.970730	0.000000	5.912180
Ti	1.970730	1.970730	5.912180
La	0.000000	3.941450	0.000000
O	1.970730	5.912180	0.000000
O	0.000000	5.912180	1.970730
O	1.970730	3.941450	1.970730
Ti	1.970730	5.912180	1.970730
La	0.000000	3.941450	3.941450
O	1.970730	5.912180	3.941450
O	0.000000	5.912180	5.912180
O	1.970730	3.941450	5.912180
Ti	1.970730	5.912180	5.912180
La	3.941450	0.000000	0.000000
O	5.912180	1.970730	0.000000
O	3.941450	1.970730	1.970730
O	5.912180	0.000000	1.970730
Ti	5.912180	1.970730	1.970730
La	3.941450	0.000000	3.941450
O	5.912180	1.970730	3.941450
O	3.941450	1.970730	5.912180
O	5.912180	0.000000	5.912180
Ti	5.912180	1.970730	5.912180
La	3.941450	3.941450	0.000000
O	5.912180	5.912180	0.000000
O	3.941450	5.912180	1.970730
O	5.912180	3.941450	1.970730
Ti	5.912180	5.912180	1.970730
La	3.941450	3.941450	3.941450
O	5.912180	5.912180	3.941450
O	3.941450	5.912180	5.912180
O	5.912180	3.941450	5.912180
Ti	5.912180	5.912180	5.912180
