40

O	1.953110	1.953110	0.000000
O	0.000000	1.953110	1.953110
O	1.953110	0.000000	1.953110
Ru	0.000000	0.000000	0.000000
W_pv	1.953110	1.953110	1.953110
O	1.953110	1.953110	3.906237
O	0.000000	1.953110	5.859347
O	1.953110	0.000000	5.859347
Ru	0.000000	0.000000	3.906237
W_pv	1.953110	1.953110	5.859347
O	1.953110	5.859347	0.000000
O	0.000000	5.859347	1.953110
O	1.953110	3.906237	1.953110
Ru	0.000000	3.906237	0.000000
W_pv	1.953110	5.859347	1.953110
O	1.953110	5.859347	3.906237
O	0.000000	5.859347	5.859347
O	1.953110	3.906237	5.859347
Ru	0.000000	3.906237	3.906237
W_pv	1.953110	5.859347	5.859347
O	5.859347	1.953110	0.000000
O	3.906237	1.953110	1.953110
O	5.859347	0.000000	1.953110
Ru	3.906237	0.000000	0.000000
W_pv	5.859347	1.953110	1.953110
O	5.859347	1.953110	3.906237
O	3.906237	1.953110	5.859347
O	5.859347	0.000000	5.859347
Ru	3.906237	0.000000	3.906237
W_pv	5.859347	1.953110	5.859347
O	5.859347	5.859347	0.000000
O	3.906237	5.859347	1.953110
O	5.859347	3.906237	1.953110
Ru	3.906237	3.906237	0.000000
W_pv	5.859347	5.859347	1.953110
O	5.859347	5.859347	3.906237
O	3.906237	5.859347	5.859347
O	5.859347	3.906237	5.859347
Ru	3.906237	3.906237	3.906237
W_pv	5.859347	5.859347	5.859347
