40

O	1.891800	1.891800	0.000000
O	0.000000	1.891800	1.891800
O	1.891800	0.000000	1.891800
Zn	1.891800	1.891800	1.891800
Zr_sv	0.000000	0.000000	0.000000
O	1.891800	1.891800	3.783586
O	0.000000	1.891800	5.675386
O	1.891800	0.000000	5.675386
Zn	1.891800	1.891800	5.675386
Zr_sv	0.000000	0.000000	3.783586
O	1.891800	5.675386	0.000000
O	0.000000	5.675386	1.891800
O	1.891800	3.783586	1.891800
Zn	1.891800	5.675386	1.891800
Zr_sv	0.000000	3.783586	0.000000
O	1.891800	5.675386	3.783586
O	0.000000	5.675386	5.675386
O	1.891800	3.783586	5.675386
Zn	1.891800	5.675386	5.675386
Zr_sv	0.000000	3.783586	3.783586
O	5.675386	1.891800	0.000000
O	3.783586	1.891800	1.891800
O	5.675386	0.000000	1.891800
Zn	5.675386	1.891800	1.891800
Zr_sv	3.783586	0.000000	0.000000
O	5.675386	1.891800	3.783586
O	3.783586	1.891800	5.675386
O	5.675386	0.000000	5.675386
Zn	5.675386	1.891800	5.675386
Zr_sv	3.783586	0.000000	3.783586
O	5.675386	5.675386	0.000000
O	3.783586	5.675386	1.891800
O	5.675386	3.783586	1.891800
Zn	5.675386	5.675386	1.891800
Zr_sv	3.783586	3.783586	0.000000
O	5.675386	5.675386	3.783586
O	3.783586	5.675386	5.675386
O	5.675386	3.783586	5.675386
Zn	5.675386	5.675386	5.675386
Zr_sv	3.783586	3.783586	3.783586
