40

K	0.000000	0.000000	0.000000
Mg	2.065265	2.065265	2.065265
O	0.000000	2.065265	2.065265
O	2.065265	0.000000	2.065265
O	2.065265	2.065265	0.000000
K	0.000000	0.000000	4.130529
Mg	2.065265	2.065265	6.195794
O	0.000000	2.065265	6.195794
O	2.065265	0.000000	6.195794
O	2.065265	2.065265	4.130529
K	0.000000	4.130529	0.000000
Mg	2.065265	6.195794	2.065265
O	0.000000	6.195794	2.065265
O	2.065265	4.130529	2.065265
O	2.065265	6.195794	0.000000
K	0.000000	4.130529	4.130529
Mg	2.065265	6.195794	6.195794
O	0.000000	6.195794	6.195794
O	2.065265	4.130529	6.195794
O	2.065265	6.195794	4.130529
K	4.130529	0.000000	0.000000
Mg	6.195794	2.065265	2.065265
O	4.130529	2.065265	2.065265
O	6.195794	0.000000	2.065265
O	6.195794	2.065265	0.000000
K	4.130529	0.000000	4.130529
Mg	6.195794	2.065265	6.195794
O	4.130529	2.065265	6.195794
O	6.195794	0.000000	6.195794
O	6.195794	2.065265	4.130529
K	4.130529	4.130529	0.000000
Mg	6.195794	6.195794	2.065265
O	4.130529	6.195794	2.065265
O	6.195794	4.130529	2.065265
O	6.195794	6.195794	0.000000
K	4.130529	4.130529	4.130529
Mg	6.195794	6.195794	6.195794
O	4.130529	6.195794	6.195794
O	6.195794	4.130529	6.195794
O	6.195794	6.195794	4.130529
