112

Cd	0.000000	0.000000	0.000000
Cd	2.164477	-2.164643	-2.164643
O	3.472764	-0.855648	-0.855648
O	-0.856190	0.855648	-3.473639
O	0.856190	-0.855648	-3.473639
O	1.308287	1.308995	-1.308995
O	5.185144	0.855648	-0.855648
O	1.308287	3.020291	-3.020291
O	3.020667	3.020291	-1.308995
O	3.020667	1.308995	-3.020291
Si	-1.082238	-1.082322	-3.246965
Si	3.246715	1.082322	-1.082322
Si	5.411192	-1.082322	-1.082322
Si	1.082238	1.082322	-3.246965
Cd	4.328954	4.329287	0.000000
Cd	6.493431	2.164643	-2.164643
O	7.801718	3.473639	-0.855648
O	3.472764	5.184934	-3.473639
O	5.185144	3.473639	-3.473639
O	5.637241	5.638282	-1.308995
O	9.514098	5.184934	-0.855648
O	5.637241	7.349578	-3.020291
O	7.349621	7.349578	-1.308995
O	7.349621	5.638282	-3.020291
Si	3.246715	3.246965	-3.246965
Si	7.575669	5.411608	-1.082322
Si	9.740146	3.246965	-1.082322
Si	5.411192	5.411608	-3.246965
Cd	-4.328954	0.000000	-4.329287
Cd	-2.164477	-2.164643	-6.493930
O	-0.856190	-0.855648	-5.184934
O	-5.185144	0.855648	-7.802925
O	-3.472764	-0.855648	-7.802925
O	-3.020667	1.308995	-5.638282
O	0.856190	0.855648	-5.184934
O	-3.020667	3.020291	-7.349578
O	-1.308287	3.020291	-5.638282
O	-1.308287	1.308995	-7.349578
Si	-5.411192	-1.082322	-7.576251
Si	-1.082238	1.082322	-5.411608
Si	1.082238	-1.082322	-5.411608
Si	-3.246715	1.082322	-7.576251
Cd	0.000000	4.329287	-4.329287
Cd	2.164477	2.164643	-6.493930
O	3.472764	3.473639	-5.184934
O	-0.856190	5.184934	-7.802925
O	0.856190	3.473639	-7.802925
O	1.308287	5.638282	-5.638282
O	5.185144	5.184934	-5.184934
O	1.308287	7.349578	-7.349578
O	3.020667	7.349578	-5.638282
O	3.020667	5.638282	-7.349578
Si	-1.082238	3.246965	-7.576251
Si	3.246715	5.411608	-5.411608
Si	5.411192	3.246965	-5.411608
Si	1.082238	5.411608	-7.576251
Cd	4.328954	-4.329287	0.000000
Cd	6.493431	-6.493930	-2.164643
O	7.801718	-5.184934	-0.855648
O	3.472764	-3.473639	-3.473639
O	5.185144	-5.184934	-3.473639
O	5.637241	-3.020291	-1.308995
O	9.514098	-3.473639	-0.855648
O	5.637241	-1.308995	-3.020291
O	7.349621	-1.308995	-1.308995
O	7.349621	-3.020291	-3.020291
Si	3.246715	-5.411608	-3.246965
Si	7.575669	-3.246965	-1.082322
Si	9.740146	-5.411608	-1.082322
Si	5.411192	-3.246965	-3.246965
Cd	8.657908	0.000000	0.000000
Cd	10.822385	-2.164643	-2.164643
O	12.130672	-0.855648	-0.855648
O	7.801718	0.855648	-3.473639
O	9.514098	-0.855648	-3.473639
O	9.966195	1.308995	-1.308995
O	13.843052	0.855648	-0.855648
O	9.966195	3.020291	-3.020291
O	11.678575	3.020291	-1.308995
O	11.678575	1.308995	-3.020291
Si	7.575669	-1.082322	-3.246965
Si	11.904623	1.082322	-1.082322
Si	14.069100	-1.082322	-1.082322
Si	9.740146	1.082322	-3.246965
Cd	0.000000	-4.329287	-4.329287
Cd	2.164477	-6.493930	-6.493930
O	3.472764	-5.184934	-5.184934
O	-0.856190	-3.473639	-7.802925
O	0.856190	-5.184934	-7.802925
O	1.308287	-3.020291	-5.638282
O	5.185144	-3.473639	-5.184934
O	1.308287	-1.308995	-7.349578
O	3.020667	-1.308995	-5.638282
O	3.020667	-3.020291	-7.349578
Si	-1.082238	-5.411608	-7.576251
Si	3.246715	-3.246965	-5.411608
Si	5.411192	-5.411608	-5.411608
Si	1.082238	-3.246965	-7.576251
Cd	4.328954	0.000000	-4.329287
Cd	6.493431	-2.164643	-6.493930
O	7.801718	-0.855648	-5.184934
O	3.472764	0.855648	-7.802925
O	5.185144	-0.855648	-7.802925
O	5.637241	1.308995	-5.638282
O	9.514098	0.855648	-5.184934
O	5.637241	3.020291	-7.349578
O	7.349621	3.020291	-5.638282
O	7.349621	1.308995	-7.349578
Si	3.246715	-1.082322	-7.576251
Si	7.575669	1.082322	-5.411608
Si	9.740146	-1.082322	-5.411608
Si	5.411192	1.082322	-7.576251
