40

Na	1.990614	1.990614	1.990614
O	1.990614	1.990614	0.000000
O	0.000000	1.990614	1.990614
O	1.990614	0.000000	1.990614
Yb	0.000000	0.000000	0.000000
Na	1.990614	1.990614	5.971843
O	1.990614	1.990614	3.981229
O	0.000000	1.990614	5.971843
O	1.990614	0.000000	5.971843
Yb	0.000000	0.000000	3.981229
Na	1.990614	5.971843	1.990614
O	1.990614	5.971843	0.000000
O	0.000000	5.971843	1.990614
O	1.990614	3.981229	1.990614
Yb	0.000000	3.981229	0.000000
Na	1.990614	5.971843	5.971843
O	1.990614	5.971843	3.981229
O	0.000000	5.971843	5.971843
O	1.990614	3.981229	5.971843
Yb	0.000000	3.981229	3.981229
Na	5.971843	1.990614	1.990614
O	5.971843	1.990614	0.000000
O	3.981229	1.990614	1.990614
O	5.971843	0.000000	1.990614
Yb	3.981229	0.000000	0.000000
Na	5.971843	1.990614	5.971843
O	5.971843	1.990614	3.981229
O	3.981229	1.990614	5.971843
O	5.971843	0.000000	5.971843
Yb	3.981229	0.000000	3.981229
Na	5.971843	5.971843	1.990614
O	5.971843	5.971843	0.000000
O	3.981229	5.971843	1.990614
O	5.971843	3.981229	1.990614
Yb	3.981229	3.981229	0.000000
Na	5.971843	5.971843	5.971843
O	5.971843	5.971843	3.981229
O	3.981229	5.971843	5.971843
O	5.971843	3.981229	5.971843
Yb	3.981229	3.981229	3.981229
