40

F	1.829760	1.829760	1.829760
Fe	0.000000	0.000000	0.000000
O	0.000000	1.829760	1.829760
O	1.829760	0.000000	1.829760
O	1.829760	1.829760	0.000000
F	1.829760	1.829760	5.489280
Fe	0.000000	0.000000	3.659520
O	0.000000	1.829760	5.489280
O	1.829760	0.000000	5.489280
O	1.829760	1.829760	3.659520
F	1.829760	5.489280	1.829760
Fe	0.000000	3.659520	0.000000
O	0.000000	5.489280	1.829760
O	1.829760	3.659520	1.829760
O	1.829760	5.489280	0.000000
F	1.829760	5.489280	5.489280
Fe	0.000000	3.659520	3.659520
O	0.000000	5.489280	5.489280
O	1.829760	3.659520	5.489280
O	1.829760	5.489280	3.659520
F	5.489280	1.829760	1.829760
Fe	3.659520	0.000000	0.000000
O	3.659520	1.829760	1.829760
O	5.489280	0.000000	1.829760
O	5.489280	1.829760	0.000000
F	5.489280	1.829760	5.489280
Fe	3.659520	0.000000	3.659520
O	3.659520	1.829760	5.489280
O	5.489280	0.000000	5.489280
O	5.489280	1.829760	3.659520
F	5.489280	5.489280	1.829760
Fe	3.659520	3.659520	0.000000
O	3.659520	5.489280	1.829760
O	5.489280	3.659520	1.829760
O	5.489280	5.489280	0.000000
F	5.489280	5.489280	5.489280
Fe	3.659520	3.659520	3.659520
O	3.659520	5.489280	5.489280
O	5.489280	3.659520	5.489280
O	5.489280	5.489280	3.659520
