40

F	0.000000	0.000000	0.000000
Fe	1.797764	1.797764	1.797764
O	0.000000	1.797764	1.797764
O	1.797764	0.000000	1.797764
O	1.797764	1.797764	0.000000
F	0.000000	0.000000	3.595527
Fe	1.797764	1.797764	5.393291
O	0.000000	1.797764	5.393291
O	1.797764	0.000000	5.393291
O	1.797764	1.797764	3.595527
F	0.000000	3.595527	0.000000
Fe	1.797764	5.393291	1.797764
O	0.000000	5.393291	1.797764
O	1.797764	3.595527	1.797764
O	1.797764	5.393291	0.000000
F	0.000000	3.595527	3.595527
Fe	1.797764	5.393291	5.393291
O	0.000000	5.393291	5.393291
O	1.797764	3.595527	5.393291
O	1.797764	5.393291	3.595527
F	3.595527	0.000000	0.000000
Fe	5.393291	1.797764	1.797764
O	3.595527	1.797764	1.797764
O	5.393291	0.000000	1.797764
O	5.393291	1.797764	0.000000
F	3.595527	0.000000	3.595527
Fe	5.393291	1.797764	5.393291
O	3.595527	1.797764	5.393291
O	5.393291	0.000000	5.393291
O	5.393291	1.797764	3.595527
F	3.595527	3.595527	0.000000
Fe	5.393291	5.393291	1.797764
O	3.595527	5.393291	1.797764
O	5.393291	3.595527	1.797764
O	5.393291	5.393291	0.000000
F	3.595527	3.595527	3.595527
Fe	5.393291	5.393291	5.393291
O	3.595527	5.393291	5.393291
O	5.393291	3.595527	5.393291
O	5.393291	5.393291	3.595527
