40

Ni	1.853570	1.853570	1.853570
O	1.853570	1.853570	0.000000
O	0.000000	1.853570	1.853570
O	1.853570	0.000000	1.853570
Y	0.000000	0.000000	0.000000
Ni	1.853570	1.853570	5.560705
O	1.853570	1.853570	3.707135
O	0.000000	1.853570	5.560705
O	1.853570	0.000000	5.560705
Y	0.000000	0.000000	3.707135
Ni	1.853570	5.560705	1.853570
O	1.853570	5.560705	0.000000
O	0.000000	5.560705	1.853570
O	1.853570	3.707135	1.853570
Y	0.000000	3.707135	0.000000
Ni	1.853570	5.560705	5.560705
O	1.853570	5.560705	3.707135
O	0.000000	5.560705	5.560705
O	1.853570	3.707135	5.560705
Y	0.000000	3.707135	3.707135
Ni	5.560705	1.853570	1.853570
O	5.560705	1.853570	0.000000
O	3.707135	1.853570	1.853570
O	5.560705	0.000000	1.853570
Y	3.707135	0.000000	0.000000
Ni	5.560705	1.853570	5.560705
O	5.560705	1.853570	3.707135
O	3.707135	1.853570	5.560705
O	5.560705	0.000000	5.560705
Y	3.707135	0.000000	3.707135
Ni	5.560705	5.560705	1.853570
O	5.560705	5.560705	0.000000
O	3.707135	5.560705	1.853570
O	5.560705	3.707135	1.853570
Y	3.707135	3.707135	0.000000
Ni	5.560705	5.560705	5.560705
O	5.560705	5.560705	3.707135
O	3.707135	5.560705	5.560705
O	5.560705	3.707135	5.560705
Y	3.707135	3.707135	3.707135
