40

I	0.000000	0.000000	0.000000
Nb	2.059968	2.059968	2.059968
O	0.000000	2.059968	2.059968
O	2.059968	0.000000	2.059968
O	2.059968	2.059968	0.000000
I	0.000000	0.000000	4.119936
Nb	2.059968	2.059968	6.179903
O	0.000000	2.059968	6.179903
O	2.059968	0.000000	6.179903
O	2.059968	2.059968	4.119936
I	0.000000	4.119936	0.000000
Nb	2.059968	6.179903	2.059968
O	0.000000	6.179903	2.059968
O	2.059968	4.119936	2.059968
O	2.059968	6.179903	0.000000
I	0.000000	4.119936	4.119936
Nb	2.059968	6.179903	6.179903
O	0.000000	6.179903	6.179903
O	2.059968	4.119936	6.179903
O	2.059968	6.179903	4.119936
I	4.119936	0.000000	0.000000
Nb	6.179903	2.059968	2.059968
O	4.119936	2.059968	2.059968
O	6.179903	0.000000	2.059968
O	6.179903	2.059968	0.000000
I	4.119936	0.000000	4.119936
Nb	6.179903	2.059968	6.179903
O	4.119936	2.059968	6.179903
O	6.179903	0.000000	6.179903
O	6.179903	2.059968	4.119936
I	4.119936	4.119936	0.000000
Nb	6.179903	6.179903	2.059968
O	4.119936	6.179903	2.059968
O	6.179903	4.119936	2.059968
O	6.179903	6.179903	0.000000
I	4.119936	4.119936	4.119936
Nb	6.179903	6.179903	6.179903
O	4.119936	6.179903	6.179903
O	6.179903	4.119936	6.179903
O	6.179903	6.179903	4.119936
