112

Be	0.000000	0.000000	0.000000
Be	2.318200	-2.318386	-2.318386
O	1.009092	1.009330	-1.009330
O	-1.309108	1.309066	-3.327716
O	3.327302	-1.309066	-1.309066
O	1.309108	-1.309066	-3.327716
O	1.009092	3.627451	-3.627451
O	3.627318	3.627451	-1.009330
O	3.627318	1.009330	-3.627451
O	5.945518	1.309066	-1.309066
Th	-1.159105	-1.159198	-3.477583
Th	5.795505	-1.159198	-1.159198
Th	1.159105	1.159198	-3.477583
Th	3.477305	1.159198	-1.159198
Be	4.636408	4.636780	0.000000
Be	6.954608	2.318395	-2.318386
O	5.645500	5.646110	-1.009330
O	3.327300	5.945846	-3.327716
O	7.963710	3.327715	-1.309066
O	5.945516	3.327715	-3.327716
O	5.645500	8.264232	-3.627451
O	8.263726	8.264232	-1.009330
O	8.263726	5.646110	-3.627451
O	10.581926	5.945846	-1.309066
Th	3.477303	3.477582	-3.477583
Th	10.431913	3.477582	-1.159198
Th	5.795513	5.795978	-3.477583
Th	8.113713	5.795978	-1.159198
Be	-4.636408	0.000000	-4.636780
Be	-2.318208	-2.318386	-6.955166
O	-3.627316	1.009330	-5.646110
O	-5.945516	1.309066	-7.964496
O	-1.309106	-1.309066	-5.945846
O	-3.327300	-1.309066	-7.964496
O	-3.627316	3.627451	-8.264232
O	-1.009090	3.627451	-5.646110
O	-1.009090	1.009330	-8.264232
O	1.309110	1.309066	-5.945846
Th	-5.795513	-1.159198	-8.114364
Th	1.159097	-1.159198	-5.795978
Th	-3.477303	1.159198	-8.114364
Th	-1.159103	1.159198	-5.795978
Be	0.000000	4.636780	-4.636780
Be	2.318200	2.318395	-6.955166
O	1.009092	5.646110	-5.646110
O	-1.309108	5.945846	-7.964496
O	3.327302	3.327715	-5.945846
O	1.309108	3.327715	-7.964496
O	1.009092	8.264232	-8.264232
O	3.627318	8.264232	-5.646110
O	3.627318	5.646110	-8.264232
O	5.945518	5.945846	-5.945846
Th	-1.159105	3.477582	-8.114364
Th	5.795505	3.477582	-5.795978
Th	1.159105	5.795978	-8.114364
Th	3.477305	5.795978	-5.795978
Be	4.636408	-4.636780	0.000000
Be	6.954608	-6.955166	-2.318386
O	5.645500	-3.627450	-1.009330
O	3.327300	-3.327715	-3.327716
O	7.963710	-5.945846	-1.309066
O	5.945516	-5.945846	-3.327716
O	5.645500	-1.009329	-3.627451
O	8.263726	-1.009329	-1.009330
O	8.263726	-3.627450	-3.627451
O	10.581926	-3.327715	-1.309066
Th	3.477303	-5.795978	-3.477583
Th	10.431913	-5.795978	-1.159198
Th	5.795513	-3.477582	-3.477583
Th	8.113713	-3.477582	-1.159198
Be	9.272816	0.000000	0.000000
Be	11.591016	-2.318386	-2.318386
O	10.281908	1.009330	-1.009330
O	7.963708	1.309066	-3.327716
O	12.600118	-1.309066	-1.309066
O	10.581924	-1.309066	-3.327716
O	10.281908	3.627451	-3.627451
O	12.900133	3.627451	-1.009330
O	12.900133	1.009330	-3.627451
O	15.218333	1.309066	-1.309066
Th	8.113711	-1.159198	-3.477583
Th	15.068321	-1.159198	-1.159198
Th	10.431921	1.159198	-3.477583
Th	12.750121	1.159198	-1.159198
Be	0.000000	-4.636780	-4.636780
Be	2.318200	-6.955166	-6.955166
O	1.009092	-3.627450	-5.646110
O	-1.309108	-3.327715	-7.964496
O	3.327302	-5.945846	-5.945846
O	1.309108	-5.945846	-7.964496
O	1.009092	-1.009329	-8.264232
O	3.627318	-1.009329	-5.646110
O	3.627318	-3.627450	-8.264232
O	5.945518	-3.327715	-5.945846
Th	-1.159105	-5.795978	-8.114364
Th	5.795505	-5.795978	-5.795978
Th	1.159105	-3.477582	-8.114364
Th	3.477305	-3.477582	-5.795978
Be	4.636408	0.000000	-4.636780
Be	6.954608	-2.318386	-6.955166
O	5.645500	1.009330	-5.646110
O	3.327300	1.309066	-7.964496
O	7.963710	-1.309066	-5.945846
O	5.945516	-1.309066	-7.964496
O	5.645500	3.627451	-8.264232
O	8.263726	3.627451	-5.646110
O	8.263726	1.009330	-8.264232
O	10.581926	1.309066	-5.945846
Th	3.477303	-1.159198	-8.114364
Th	10.431913	-1.159198	-5.795978
Th	5.795513	1.159198	-8.114364
Th	8.113713	1.159198	-5.795978
