320

Ce	0.000000	0.000000	0.000000
Ce	4.521704	4.521704	0.000000
Ce	4.521704	0.000000	4.521704
Ce	0.000000	4.521704	4.521704
O	4.521704	0.000000	0.000000
O	0.000000	4.521704	0.000000
O	6.706258	3.772652	0.427031
O	6.858883	8.294376	0.427031
O	8.616396	2.184545	0.749051
O	4.948735	6.706258	0.749051
O	3.772652	4.094693	2.184545
O	0.749051	8.616396	2.184545
O	8.294376	4.094693	2.337159
O	5.270765	8.616396	2.337159
O	4.094693	2.184545	3.772652
O	0.427031	6.706258	3.772652
O	2.184545	3.772652	4.094693
O	2.337159	8.294376	4.094693
O	0.000000	0.000000	4.521704
O	4.521704	4.521704	4.521704
O	6.706258	0.749051	4.948735
O	6.858883	5.270765	4.948735
O	8.616396	2.337159	5.270765
O	4.948735	6.858883	5.270765
O	3.772652	0.427031	6.706258
O	0.749051	4.948735	6.706258
O	8.294376	0.427031	6.858883
O	5.270765	4.948735	6.858883
O	4.094693	2.337159	8.294376
O	0.427031	6.858883	8.294376
O	2.184545	0.749051	8.616396
O	2.337159	5.270765	8.616396
P	8.132572	3.610869	0.910855
P	5.432559	8.132572	0.910855
P	3.610869	3.610869	3.610869
P	0.910855	8.132572	3.610869
P	8.132572	0.910855	5.432559
P	5.432559	5.432559	5.432559
P	3.610869	0.910855	8.132572
P	0.910855	5.432559	8.132572
Ce	0.000000	0.000000	9.043423
Ce	4.521704	4.521704	9.043423
Ce	4.521704	0.000000	13.565127
Ce	0.000000	4.521704	13.565127
O	4.521704	0.000000	9.043423
O	0.000000	4.521704	9.043423
O	6.706258	3.772652	9.470454
O	6.858883	8.294376	9.470454
O	8.616396	2.184545	9.792475
O	4.948735	6.706258	9.792475
O	3.772652	4.094693	11.227968
O	0.749051	8.616396	11.227968
O	8.294376	4.094693	11.380582
O	5.270765	8.616396	11.380582
O	4.094693	2.184545	12.816075
O	0.427031	6.706258	12.816075
O	2.184545	3.772652	13.138116
O	2.337159	8.294376	13.138116
O	0.000000	0.000000	13.565127
O	4.521704	4.521704	13.565127
O	6.706258	0.749051	13.992158
O	6.858883	5.270765	13.992158
O	8.616396	2.337159	14.314188
O	4.948735	6.858883	14.314188
O	3.772652	0.427031	15.749681
O	0.749051	4.948735	15.749681
O	8.294376	0.427031	15.902306
O	5.270765	4.948735	15.902306
O	4.094693	2.337159	17.337799
O	0.427031	6.858883	17.337799
O	2.184545	0.749051	17.659820
O	2.337159	5.270765	17.659820
P	8.132572	3.610869	9.954278
P	5.432559	8.132572	9.954278
P	3.610869	3.610869	12.654292
P	0.910855	8.132572	12.654292
P	8.132572	0.910855	14.475982
P	5.432559	5.432559	14.475982
P	3.610869	0.910855	17.175995
P	0.910855	5.432559	17.175995
Ce	0.000000	9.043423	0.000000
Ce	4.521704	13.565127	0.000000
Ce	4.521704	9.043423	4.521704
Ce	0.000000	13.565127	4.521704
O	4.521704	9.043423	0.000000
O	0.000000	13.565127	0.000000
O	6.706258	12.816075	0.427031
O	6.858883	17.337799	0.427031
O	8.616396	11.227968	0.749051
O	4.948735	15.749681	0.749051
O	3.772652	13.138116	2.184545
O	0.749051	17.659820	2.184545
O	8.294376	13.138116	2.337159
O	5.270765	17.659820	2.337159
O	4.094693	11.227968	3.772652
O	0.427031	15.749681	3.772652
O	2.184545	12.816075	4.094693
O	2.337159	17.337799	4.094693
O	0.000000	9.043423	4.521704
O	4.521704	13.565127	4.521704
O	6.706258	9.792475	4.948735
O	6.858883	14.314188	4.948735
O	8.616396	11.380582	5.270765
O	4.948735	15.902306	5.270765
O	3.772652	9.470454	6.706258
O	0.749051	13.992158	6.706258
O	8.294376	9.470454	6.858883
O	5.270765	13.992158	6.858883
O	4.094693	11.380582	8.294376
O	0.427031	15.902306	8.294376
O	2.184545	9.792475	8.616396
O	2.337159	14.314188	8.616396
P	8.132572	12.654292	0.910855
P	5.432559	17.175995	0.910855
P	3.610869	12.654292	3.610869
P	0.910855	17.175995	3.610869
P	8.132572	9.954278	5.432559
P	5.432559	14.475982	5.432559
P	3.610869	9.954278	8.132572
P	0.910855	14.475982	8.132572
Ce	0.000000	9.043423	9.043423
Ce	4.521704	13.565127	9.043423
Ce	4.521704	9.043423	13.565127
Ce	0.000000	13.565127	13.565127
O	4.521704	9.043423	9.043423
O	0.000000	13.565127	9.043423
O	6.706258	12.816075	9.470454
O	6.858883	17.337799	9.470454
O	8.616396	11.227968	9.792475
O	4.948735	15.749681	9.792475
O	3.772652	13.138116	11.227968
O	0.749051	17.659820	11.227968
O	8.294376	13.138116	11.380582
O	5.270765	17.659820	11.380582
O	4.094693	11.227968	12.816075
O	0.427031	15.749681	12.816075
O	2.184545	12.816075	13.138116
O	2.337159	17.337799	13.138116
O	0.000000	9.043423	13.565127
O	4.521704	13.565127	13.565127
O	6.706258	9.792475	13.992158
O	6.858883	14.314188	13.992158
O	8.616396	11.380582	14.314188
O	4.948735	15.902306	14.314188
O	3.772652	9.470454	15.749681
O	0.749051	13.992158	15.749681
O	8.294376	9.470454	15.902306
O	5.270765	13.992158	15.902306
O	4.094693	11.380582	17.337799
O	0.427031	15.902306	17.337799
O	2.184545	9.792475	17.659820
O	2.337159	14.314188	17.659820
P	8.132572	12.654292	9.954278
P	5.432559	17.175995	9.954278
P	3.610869	12.654292	12.654292
P	0.910855	17.175995	12.654292
P	8.132572	9.954278	14.475982
P	5.432559	14.475982	14.475982
P	3.610869	9.954278	17.175995
P	0.910855	14.475982	17.175995
Ce	9.043423	0.000000	0.000000
Ce	13.565127	4.521704	0.000000
Ce	13.565127	0.000000	4.521704
Ce	9.043423	4.521704	4.521704
O	13.565127	0.000000	0.000000
O	9.043423	4.521704	0.000000
O	15.749681	3.772652	0.427031
O	15.902306	8.294376	0.427031
O	17.659820	2.184545	0.749051
O	13.992158	6.706258	0.749051
O	12.816075	4.094693	2.184545
O	9.792475	8.616396	2.184545
O	17.337799	4.094693	2.337159
O	14.314188	8.616396	2.337159
O	13.138116	2.184545	3.772652
O	9.470454	6.706258	3.772652
O	11.227968	3.772652	4.094693
O	11.380582	8.294376	4.094693
O	9.043423	0.000000	4.521704
O	13.565127	4.521704	4.521704
O	15.749681	0.749051	4.948735
O	15.902306	5.270765	4.948735
O	17.659820	2.337159	5.270765
O	13.992158	6.858883	5.270765
O	12.816075	0.427031	6.706258
O	9.792475	4.948735	6.706258
O	17.337799	0.427031	6.858883
O	14.314188	4.948735	6.858883
O	13.138116	2.337159	8.294376
O	9.470454	6.858883	8.294376
O	11.227968	0.749051	8.616396
O	11.380582	5.270765	8.616396
P	17.175995	3.610869	0.910855
P	14.475982	8.132572	0.910855
P	12.654292	3.610869	3.610869
P	9.954278	8.132572	3.610869
P	17.175995	0.910855	5.432559
P	14.475982	5.432559	5.432559
P	12.654292	0.910855	8.132572
P	9.954278	5.432559	8.132572
Ce	9.043423	0.000000	9.043423
Ce	13.565127	4.521704	9.043423
Ce	13.565127	0.000000	13.565127
Ce	9.043423	4.521704	13.565127
O	13.565127	0.000000	9.043423
O	9.043423	4.521704	9.043423
O	15.749681	3.772652	9.470454
O	15.902306	8.294376	9.470454
O	17.659820	2.184545	9.792475
O	13.992158	6.706258	9.792475
O	12.816075	4.094693	11.227968
O	9.792475	8.616396	11.227968
O	17.337799	4.094693	11.380582
O	14.314188	8.616396	11.380582
O	13.138116	2.184545	12.816075
O	9.470454	6.706258	12.816075
O	11.227968	3.772652	13.138116
O	11.380582	8.294376	13.138116
O	9.043423	0.000000	13.565127
O	13.565127	4.521704	13.565127
O	15.749681	0.749051	13.992158
O	15.902306	5.270765	13.992158
O	17.659820	2.337159	14.314188
O	13.992158	6.858883	14.314188
O	12.816075	0.427031	15.749681
O	9.792475	4.948735	15.749681
O	17.337799	0.427031	15.902306
O	14.314188	4.948735	15.902306
O	13.138116	2.337159	17.337799
O	9.470454	6.858883	17.337799
O	11.227968	0.749051	17.659820
O	11.380582	5.270765	17.659820
P	17.175995	3.610869	9.954278
P	14.475982	8.132572	9.954278
P	12.654292	3.610869	12.654292
P	9.954278	8.132572	12.654292
P	17.175995	0.910855	14.475982
P	14.475982	5.432559	14.475982
P	12.654292	0.910855	17.175995
P	9.954278	5.432559	17.175995
Ce	9.043423	9.043423	0.000000
Ce	13.565127	13.565127	0.000000
Ce	13.565127	9.043423	4.521704
Ce	9.043423	13.565127	4.521704
O	13.565127	9.043423	0.000000
O	9.043423	13.565127	0.000000
O	15.749681	12.816075	0.427031
O	15.902306	17.337799	0.427031
O	17.659820	11.227968	0.749051
O	13.992158	15.749681	0.749051
O	12.816075	13.138116	2.184545
O	9.792475	17.659820	2.184545
O	17.337799	13.138116	2.337159
O	14.314188	17.659820	2.337159
O	13.138116	11.227968	3.772652
O	9.470454	15.749681	3.772652
O	11.227968	12.816075	4.094693
O	11.380582	17.337799	4.094693
O	9.043423	9.043423	4.521704
O	13.565127	13.565127	4.521704
O	15.749681	9.792475	4.948735
O	15.902306	14.314188	4.948735
O	17.659820	11.380582	5.270765
O	13.992158	15.902306	5.270765
O	12.816075	9.470454	6.706258
O	9.792475	13.992158	6.706258
O	17.337799	9.470454	6.858883
O	14.314188	13.992158	6.858883
O	13.138116	11.380582	8.294376
O	9.470454	15.902306	8.294376
O	11.227968	9.792475	8.616396
O	11.380582	14.314188	8.616396
P	17.175995	12.654292	0.910855
P	14.475982	17.175995	0.910855
P	12.654292	12.654292	3.610869
P	9.954278	17.175995	3.610869
P	17.175995	9.954278	5.432559
P	14.475982	14.475982	5.432559
P	12.654292	9.954278	8.132572
P	9.954278	14.475982	8.132572
Ce	9.043423	9.043423	9.043423
Ce	13.565127	13.565127	9.043423
Ce	13.565127	9.043423	13.565127
Ce	9.043423	13.565127	13.565127
O	13.565127	9.043423	9.043423
O	9.043423	13.565127	9.043423
O	15.749681	12.816075	9.470454
O	15.902306	17.337799	9.470454
O	17.659820	11.227968	9.792475
O	13.992158	15.749681	9.792475
O	12.816075	13.138116	11.227968
O	9.792475	17.659820	11.227968
O	17.337799	13.138116	11.380582
O	14.314188	17.659820	11.380582
O	13.138116	11.227968	12.816075
O	9.470454	15.749681	12.816075
O	11.227968	12.816075	13.138116
O	11.380582	17.337799	13.138116
O	9.043423	9.043423	13.565127
O	13.565127	13.565127	13.565127
O	15.749681	9.792475	13.992158
O	15.902306	14.314188	13.992158
O	17.659820	11.380582	14.314188
O	13.992158	15.902306	14.314188
O	12.816075	9.470454	15.749681
O	9.792475	13.992158	15.749681
O	17.337799	9.470454	15.902306
O	14.314188	13.992158	15.902306
O	13.138116	11.380582	17.337799
O	9.470454	15.902306	17.337799
O	11.227968	9.792475	17.659820
O	11.380582	14.314188	17.659820
P	17.175995	12.654292	9.954278
P	14.475982	17.175995	9.954278
P	12.654292	12.654292	12.654292
P	9.954278	17.175995	12.654292
P	17.175995	9.954278	14.475982
P	14.475982	14.475982	14.475982
P	12.654292	9.954278	17.175995
P	9.954278	14.475982	17.175995
