40

Mn	1.933490	1.933490	1.933490
O	1.933490	1.933490	0.000000
O	0.000000	1.933490	1.933490
O	1.933490	0.000000	1.933490
Pm	0.000000	0.000000	0.000000
Mn	1.933490	1.933490	5.800458
O	1.933490	1.933490	3.866968
O	0.000000	1.933490	5.800458
O	1.933490	0.000000	5.800458
Pm	0.000000	0.000000	3.866968
Mn	1.933490	5.800458	1.933490
O	1.933490	5.800458	0.000000
O	0.000000	5.800458	1.933490
O	1.933490	3.866968	1.933490
Pm	0.000000	3.866968	0.000000
Mn	1.933490	5.800458	5.800458
O	1.933490	5.800458	3.866968
O	0.000000	5.800458	5.800458
O	1.933490	3.866968	5.800458
Pm	0.000000	3.866968	3.866968
Mn	5.800458	1.933490	1.933490
O	5.800458	1.933490	0.000000
O	3.866968	1.933490	1.933490
O	5.800458	0.000000	1.933490
Pm	3.866968	0.000000	0.000000
Mn	5.800458	1.933490	5.800458
O	5.800458	1.933490	3.866968
O	3.866968	1.933490	5.800458
O	5.800458	0.000000	5.800458
Pm	3.866968	0.000000	3.866968
Mn	5.800458	5.800458	1.933490
O	5.800458	5.800458	0.000000
O	3.866968	5.800458	1.933490
O	5.800458	3.866968	1.933490
Pm	3.866968	3.866968	0.000000
Mn	5.800458	5.800458	5.800458
O	5.800458	5.800458	3.866968
O	3.866968	5.800458	5.800458
O	5.800458	3.866968	5.800458
Pm	3.866968	3.866968	3.866968
