40

Mn	0.000000	0.000000	0.000000
O	2.212617	2.212617	0.000000
O	2.212617	0.000000	2.212617
O	0.000000	2.212617	2.212617
Pm	2.212617	2.212617	2.212617
Mn	0.000000	0.000000	4.425234
O	2.212617	2.212617	4.425234
O	2.212617	0.000000	6.637852
O	0.000000	2.212617	6.637852
Pm	2.212617	2.212617	6.637852
Mn	0.000000	4.425234	0.000000
O	2.212617	6.637852	0.000000
O	2.212617	4.425234	2.212617
O	0.000000	6.637852	2.212617
Pm	2.212617	6.637852	2.212617
Mn	0.000000	4.425234	4.425234
O	2.212617	6.637852	4.425234
O	2.212617	4.425234	6.637852
O	0.000000	6.637852	6.637852
Pm	2.212617	6.637852	6.637852
Mn	4.425234	0.000000	0.000000
O	6.637852	2.212617	0.000000
O	6.637852	0.000000	2.212617
O	4.425234	2.212617	2.212617
Pm	6.637852	2.212617	2.212617
Mn	4.425234	0.000000	4.425234
O	6.637852	2.212617	4.425234
O	6.637852	0.000000	6.637852
O	4.425234	2.212617	6.637852
Pm	6.637852	2.212617	6.637852
Mn	4.425234	4.425234	0.000000
O	6.637852	6.637852	0.000000
O	6.637852	4.425234	2.212617
O	4.425234	6.637852	2.212617
Pm	6.637852	6.637852	2.212617
Mn	4.425234	4.425234	4.425234
O	6.637852	6.637852	4.425234
O	6.637852	4.425234	6.637852
O	4.425234	6.637852	6.637852
Pm	6.637852	6.637852	6.637852
