176

O	5.163609	3.651223	8.943634
O	3.098166	2.190734	5.366180
O	3.951331	5.365644	11.043362
O	1.885887	3.905155	7.465908
O	6.375888	1.936802	11.043362
O	7.588166	5.365644	8.943634
O	2.739052	1.936802	8.943634
O	3.951331	5.365644	6.843905
O	6.375888	1.936802	6.843905
O	5.522723	3.905155	5.366180
O	0.673608	0.476313	5.366180
O	4.310444	0.476313	3.266452
O	4.310444	0.476313	7.465908
O	1.885887	3.905155	3.266452
Ti	1.032722	2.920978	1.788727
Ti	3.098166	0.000000	1.788727
Ti	0.000000	0.000000	3.577453
Ti	0.000000	0.000000	0.000000
Er	3.098166	0.000000	5.366180
Er	1.032722	2.920978	5.366180
Er	4.130887	2.920978	3.577453
Er	4.130887	2.920978	7.154907
O	5.163609	3.651223	16.098540
O	3.098166	2.190734	12.521087
O	3.951331	5.365644	18.198268
O	1.885887	3.905155	14.620815
O	6.375888	1.936802	18.198268
O	7.588166	5.365644	16.098540
O	2.739052	1.936802	16.098540
O	3.951331	5.365644	13.998812
O	6.375888	1.936802	13.998812
O	5.522723	3.905155	12.521087
O	0.673608	0.476313	12.521087
O	4.310444	0.476313	10.421359
O	4.310444	0.476313	14.620815
O	1.885887	3.905155	10.421359
Ti	1.032722	2.920978	8.943634
Ti	3.098166	0.000000	8.943634
Ti	0.000000	0.000000	10.732360
Ti	0.000000	0.000000	7.154907
Er	3.098166	0.000000	12.521087
Er	1.032722	2.920978	12.521087
Er	4.130887	2.920978	10.732360
Er	4.130887	2.920978	14.309814
O	7.229053	9.493180	12.521087
O	5.163609	8.032691	8.943634
O	6.016774	11.207601	14.620815
O	3.951331	9.747112	11.043362
O	8.441331	7.778759	14.620815
O	9.653610	11.207601	12.521087
O	4.804496	7.778759	12.521087
O	6.016774	11.207601	10.421359
O	8.441331	7.778759	10.421359
O	7.588166	9.747112	8.943634
O	2.739052	6.318270	8.943634
O	6.375888	6.318270	6.843905
O	6.375888	6.318270	11.043362
O	3.951331	9.747112	6.843905
Ti	3.098166	8.762935	5.366180
Ti	5.163609	5.841957	5.366180
Ti	2.065444	5.841957	7.154907
Ti	2.065444	5.841957	3.577453
Er	5.163609	5.841957	8.943634
Er	3.098166	8.762935	8.943634
Er	6.196331	8.762935	7.154907
Er	6.196331	8.762935	10.732360
O	7.229053	9.493180	19.675994
O	5.163609	8.032691	16.098540
O	6.016774	11.207601	21.775722
O	3.951331	9.747112	18.198268
O	8.441331	7.778759	21.775722
O	9.653610	11.207601	19.675994
O	4.804496	7.778759	19.675994
O	6.016774	11.207601	17.576266
O	8.441331	7.778759	17.576266
O	7.588166	9.747112	16.098540
O	2.739052	6.318270	16.098540
O	6.375888	6.318270	13.998812
O	6.375888	6.318270	18.198268
O	3.951331	9.747112	13.998812
Ti	3.098166	8.762935	12.521087
Ti	5.163609	5.841957	12.521087
Ti	2.065444	5.841957	14.309814
Ti	2.065444	5.841957	10.732360
Er	5.163609	5.841957	16.098540
Er	3.098166	8.762935	16.098540
Er	6.196331	8.762935	14.309814
Er	6.196331	8.762935	17.887267
O	11.359940	3.651223	12.521087
O	9.294497	2.190734	8.943634
O	10.147662	5.365644	14.620815
O	8.082218	3.905155	11.043362
O	12.572219	1.936802	14.620815
O	13.784497	5.365644	12.521087
O	8.935383	1.936802	12.521087
O	10.147662	5.365644	10.421359
O	12.572219	1.936802	10.421359
O	11.719054	3.905155	8.943634
O	6.869939	0.476313	8.943634
O	10.506775	0.476313	6.843905
O	10.506775	0.476313	11.043362
O	8.082218	3.905155	6.843905
Ti	7.229053	2.920978	5.366180
Ti	9.294497	0.000000	5.366180
Ti	6.196331	0.000000	7.154907
Ti	6.196331	0.000000	3.577453
Er	9.294497	0.000000	8.943634
Er	7.229053	2.920978	8.943634
Er	10.327218	2.920978	7.154907
Er	10.327218	2.920978	10.732360
O	11.359940	3.651223	19.675994
O	9.294497	2.190734	16.098540
O	10.147662	5.365644	21.775722
O	8.082218	3.905155	18.198268
O	12.572219	1.936802	21.775722
O	13.784497	5.365644	19.675994
O	8.935383	1.936802	19.675994
O	10.147662	5.365644	17.576266
O	12.572219	1.936802	17.576266
O	11.719054	3.905155	16.098540
O	6.869939	0.476313	16.098540
O	10.506775	0.476313	13.998812
O	10.506775	0.476313	18.198268
O	8.082218	3.905155	13.998812
Ti	7.229053	2.920978	12.521087
Ti	9.294497	0.000000	12.521087
Ti	6.196331	0.000000	14.309814
Ti	6.196331	0.000000	10.732360
Er	9.294497	0.000000	16.098540
Er	7.229053	2.920978	16.098540
Er	10.327218	2.920978	14.309814
Er	10.327218	2.920978	17.887267
O	13.425384	9.493180	16.098540
O	11.359940	8.032691	12.521087
O	12.213105	11.207601	18.198268
O	10.147662	9.747112	14.620815
O	14.637663	7.778759	18.198268
O	15.849941	11.207601	16.098540
O	11.000827	7.778759	16.098540
O	12.213105	11.207601	13.998812
O	14.637663	7.778759	13.998812
O	13.784497	9.747112	12.521087
O	8.935383	6.318270	12.521087
O	12.572219	6.318270	10.421359
O	12.572219	6.318270	14.620815
O	10.147662	9.747112	10.421359
Ti	9.294497	8.762935	8.943634
Ti	11.359940	5.841957	8.943634
Ti	8.261775	5.841957	10.732360
Ti	8.261775	5.841957	7.154907
Er	11.359940	5.841957	12.521087
Er	9.294497	8.762935	12.521087
Er	12.392662	8.762935	10.732360
Er	12.392662	8.762935	14.309814
O	13.425384	9.493180	23.253447
O	11.359940	8.032691	19.675994
O	12.213105	11.207601	25.353175
O	10.147662	9.747112	21.775722
O	14.637663	7.778759	25.353175
O	15.849941	11.207601	23.253447
O	11.000827	7.778759	23.253447
O	12.213105	11.207601	21.153719
O	14.637663	7.778759	21.153719
O	13.784497	9.747112	19.675994
O	8.935383	6.318270	19.675994
O	12.572219	6.318270	17.576266
O	12.572219	6.318270	21.775722
O	10.147662	9.747112	17.576266
Ti	9.294497	8.762935	16.098540
Ti	11.359940	5.841957	16.098540
Ti	8.261775	5.841957	17.887267
Ti	8.261775	5.841957	14.309814
Er	11.359940	5.841957	19.675994
Er	9.294497	8.762935	19.675994
Er	12.392662	8.762935	17.887267
Er	12.392662	8.762935	21.464720
