40

B	1.746507	1.746507	1.746507
O	0.000000	1.746507	1.746507
O	1.746507	0.000000	1.746507
O	1.746507	1.746507	0.000000
Y	0.000000	0.000000	0.000000
B	1.746507	1.746507	5.239520
O	0.000000	1.746507	5.239520
O	1.746507	0.000000	5.239520
O	1.746507	1.746507	3.493013
Y	0.000000	0.000000	3.493013
B	1.746507	5.239520	1.746507
O	0.000000	5.239520	1.746507
O	1.746507	3.493013	1.746507
O	1.746507	5.239520	0.000000
Y	0.000000	3.493013	0.000000
B	1.746507	5.239520	5.239520
O	0.000000	5.239520	5.239520
O	1.746507	3.493013	5.239520
O	1.746507	5.239520	3.493013
Y	0.000000	3.493013	3.493013
B	5.239520	1.746507	1.746507
O	3.493013	1.746507	1.746507
O	5.239520	0.000000	1.746507
O	5.239520	1.746507	0.000000
Y	3.493013	0.000000	0.000000
B	5.239520	1.746507	5.239520
O	3.493013	1.746507	5.239520
O	5.239520	0.000000	5.239520
O	5.239520	1.746507	3.493013
Y	3.493013	0.000000	3.493013
B	5.239520	5.239520	1.746507
O	3.493013	5.239520	1.746507
O	5.239520	3.493013	1.746507
O	5.239520	5.239520	0.000000
Y	3.493013	3.493013	0.000000
B	5.239520	5.239520	5.239520
O	3.493013	5.239520	5.239520
O	5.239520	3.493013	5.239520
O	5.239520	5.239520	3.493013
Y	3.493013	3.493013	3.493013
