40

O	0.000000	1.985680	1.985680
O	1.985680	0.000000	1.985680
O	1.985680	1.985680	0.000000
Ti	0.000000	0.000000	0.000000
W	1.985680	1.985680	1.985680
O	0.000000	1.985680	5.957040
O	1.985680	0.000000	5.957040
O	1.985680	1.985680	3.971360
Ti	0.000000	0.000000	3.971360
W	1.985680	1.985680	5.957040
O	0.000000	5.957040	1.985680
O	1.985680	3.971360	1.985680
O	1.985680	5.957040	0.000000
Ti	0.000000	3.971360	0.000000
W	1.985680	5.957040	1.985680
O	0.000000	5.957040	5.957040
O	1.985680	3.971360	5.957040
O	1.985680	5.957040	3.971360
Ti	0.000000	3.971360	3.971360
W	1.985680	5.957040	5.957040
O	3.971360	1.985680	1.985680
O	5.957040	0.000000	1.985680
O	5.957040	1.985680	0.000000
Ti	3.971360	0.000000	0.000000
W	5.957040	1.985680	1.985680
O	3.971360	1.985680	5.957040
O	5.957040	0.000000	5.957040
O	5.957040	1.985680	3.971360
Ti	3.971360	0.000000	3.971360
W	5.957040	1.985680	5.957040
O	3.971360	5.957040	1.985680
O	5.957040	3.971360	1.985680
O	5.957040	5.957040	0.000000
Ti	3.971360	3.971360	0.000000
W	5.957040	5.957040	1.985680
O	3.971360	5.957040	5.957040
O	5.957040	3.971360	5.957040
O	5.957040	5.957040	3.971360
Ti	3.971360	3.971360	3.971360
W	5.957040	5.957040	5.957040
