40

Cr	0.000000	0.000000	0.000000
Gd	2.170300	2.170300	2.170300
O	2.170300	2.170300	0.000000
O	2.170300	0.000000	2.170300
O	0.000000	2.170300	2.170300
Cr	0.000000	0.000000	4.340603
Gd	2.170300	2.170300	6.510903
O	2.170300	2.170300	4.340603
O	2.170300	0.000000	6.510903
O	0.000000	2.170300	6.510903
Cr	0.000000	4.340603	0.000000
Gd	2.170300	6.510903	2.170300
O	2.170300	6.510903	0.000000
O	2.170300	4.340603	2.170300
O	0.000000	6.510903	2.170300
Cr	0.000000	4.340603	4.340603
Gd	2.170300	6.510903	6.510903
O	2.170300	6.510903	4.340603
O	2.170300	4.340603	6.510903
O	0.000000	6.510903	6.510903
Cr	4.340603	0.000000	0.000000
Gd	6.510903	2.170300	2.170300
O	6.510903	2.170300	0.000000
O	6.510903	0.000000	2.170300
O	4.340603	2.170300	2.170300
Cr	4.340603	0.000000	4.340603
Gd	6.510903	2.170300	6.510903
O	6.510903	2.170300	4.340603
O	6.510903	0.000000	6.510903
O	4.340603	2.170300	6.510903
Cr	4.340603	4.340603	0.000000
Gd	6.510903	6.510903	2.170300
O	6.510903	6.510903	0.000000
O	6.510903	4.340603	2.170300
O	4.340603	6.510903	2.170300
Cr	4.340603	4.340603	4.340603
Gd	6.510903	6.510903	6.510903
O	6.510903	6.510903	4.340603
O	6.510903	4.340603	6.510903
O	4.340603	6.510903	6.510903
