40

Cl	0.000000	0.000000	0.000000
O	0.000000	2.211322	2.211322
O	2.211322	0.000000	2.211322
O	2.211322	2.211322	0.000000
Tl	2.211322	2.211322	2.211322
Cl	0.000000	0.000000	4.422643
O	0.000000	2.211322	6.633965
O	2.211322	0.000000	6.633965
O	2.211322	2.211322	4.422643
Tl	2.211322	2.211322	6.633965
Cl	0.000000	4.422643	0.000000
O	0.000000	6.633965	2.211322
O	2.211322	4.422643	2.211322
O	2.211322	6.633965	0.000000
Tl	2.211322	6.633965	2.211322
Cl	0.000000	4.422643	4.422643
O	0.000000	6.633965	6.633965
O	2.211322	4.422643	6.633965
O	2.211322	6.633965	4.422643
Tl	2.211322	6.633965	6.633965
Cl	4.422643	0.000000	0.000000
O	4.422643	2.211322	2.211322
O	6.633965	0.000000	2.211322
O	6.633965	2.211322	0.000000
Tl	6.633965	2.211322	2.211322
Cl	4.422643	0.000000	4.422643
O	4.422643	2.211322	6.633965
O	6.633965	0.000000	6.633965
O	6.633965	2.211322	4.422643
Tl	6.633965	2.211322	6.633965
Cl	4.422643	4.422643	0.000000
O	4.422643	6.633965	2.211322
O	6.633965	4.422643	2.211322
O	6.633965	6.633965	0.000000
Tl	6.633965	6.633965	2.211322
Cl	4.422643	4.422643	4.422643
O	4.422643	6.633965	6.633965
O	6.633965	4.422643	6.633965
O	6.633965	6.633965	4.422643
Tl	6.633965	6.633965	6.633965
