176

Mn	0.000000	0.000000	0.000000
Mn	2.485226	2.485226	0.000000
Mn	0.000000	2.485226	2.485226
Mn	2.485226	0.000000	2.485226
O	3.727839	3.727839	0.793225
O	-1.242613	1.692001	3.727839
O	0.793225	3.727839	3.727839
O	1.242613	-0.793225	1.242613
O	3.278451	1.242613	1.242613
O	1.242613	1.242613	3.278451
O	-1.242613	-1.242613	3.727839
O	6.213065	1.242613	1.242613
O	3.727839	-1.242613	1.692001
O	1.692001	-1.242613	3.727839
O	3.727839	0.793225	3.727839
O	4.177227	-3.727839	1.242613
O	6.213065	-1.692001	1.242613
O	1.242613	-3.727839	4.177227
Y	-2.485226	0.000000	2.485226
Y	2.485226	-2.485226	0.000000
Y	4.970452	0.000000	0.000000
Y	0.000000	-2.485226	2.485226
Mn	4.970452	-4.970452	0.000000
Mn	7.455678	-2.485226	0.000000
Mn	4.970452	-2.485226	2.485226
Mn	7.455678	-4.970452	2.485226
O	8.698291	-1.242613	0.793225
O	3.727839	-3.278451	3.727839
O	5.763677	-1.242613	3.727839
O	6.213065	-5.763677	1.242613
O	8.248903	-3.727839	1.242613
O	6.213065	-3.727839	3.278451
O	3.727839	-6.213065	3.727839
O	11.183517	-3.727839	1.242613
O	8.698291	-6.213065	1.692001
O	6.662452	-6.213065	3.727839
O	8.698291	-4.177227	3.727839
O	9.147678	-8.698291	1.242613
O	11.183517	-6.662452	1.242613
O	6.213065	-8.698291	4.177227
Y	2.485226	-4.970452	2.485226
Y	7.455678	-7.455678	0.000000
Y	9.940904	-4.970452	0.000000
Y	4.970452	-7.455678	2.485226
Mn	-4.970452	0.000000	4.970452
Mn	-2.485226	2.485226	4.970452
Mn	-4.970452	2.485226	7.455678
Mn	-2.485226	0.000000	7.455678
O	-1.242613	3.727839	5.763677
O	-6.213065	1.692001	8.698291
O	-4.177227	3.727839	8.698291
O	-3.727839	-0.793225	6.213065
O	-1.692001	1.242613	6.213065
O	-3.727839	1.242613	8.248903
O	-6.213065	-1.242613	8.698291
O	1.242613	1.242613	6.213065
O	-1.242613	-1.242613	6.662452
O	-3.278451	-1.242613	8.698291
O	-1.242613	0.793225	8.698291
O	-0.793225	-3.727839	6.213065
O	1.242613	-1.692001	6.213065
O	-3.727839	-3.727839	9.147678
Y	-7.455678	0.000000	7.455678
Y	-2.485226	-2.485226	4.970452
Y	0.000000	0.000000	4.970452
Y	-4.970452	-2.485226	7.455678
Mn	0.000000	-4.970452	4.970452
Mn	2.485226	-2.485226	4.970452
Mn	0.000000	-2.485226	7.455678
Mn	2.485226	-4.970452	7.455678
O	3.727839	-1.242613	5.763677
O	-1.242613	-3.278451	8.698291
O	0.793225	-1.242613	8.698291
O	1.242613	-5.763677	6.213065
O	3.278451	-3.727839	6.213065
O	1.242613	-3.727839	8.248903
O	-1.242613	-6.213065	8.698291
O	6.213065	-3.727839	6.213065
O	3.727839	-6.213065	6.662452
O	1.692001	-6.213065	8.698291
O	3.727839	-4.177227	8.698291
O	4.177227	-8.698291	6.213065
O	6.213065	-6.662452	6.213065
O	1.242613	-8.698291	9.147678
Y	-2.485226	-4.970452	7.455678
Y	2.485226	-7.455678	4.970452
Y	4.970452	-4.970452	4.970452
Y	0.000000	-7.455678	7.455678
Mn	4.970452	4.970452	0.000000
Mn	7.455678	7.455678	0.000000
Mn	4.970452	7.455678	2.485226
Mn	7.455678	4.970452	2.485226
O	8.698291	8.698291	0.793225
O	3.727839	6.662452	3.727839
O	5.763677	8.698291	3.727839
O	6.213065	4.177227	1.242613
O	8.248903	6.213065	1.242613
O	6.213065	6.213065	3.278451
O	3.727839	3.727839	3.727839
O	11.183517	6.213065	1.242613
O	8.698291	3.727839	1.692001
O	6.662452	3.727839	3.727839
O	8.698291	5.763677	3.727839
O	9.147678	1.242613	1.242613
O	11.183517	3.278451	1.242613
O	6.213065	1.242613	4.177227
Y	2.485226	4.970452	2.485226
Y	7.455678	2.485226	0.000000
Y	9.940904	4.970452	0.000000
Y	4.970452	2.485226	2.485226
Mn	9.940904	0.000000	0.000000
Mn	12.426130	2.485226	0.000000
Mn	9.940904	2.485226	2.485226
Mn	12.426130	0.000000	2.485226
O	13.668743	3.727839	0.793225
O	8.698291	1.692001	3.727839
O	10.734129	3.727839	3.727839
O	11.183517	-0.793225	1.242613
O	13.219355	1.242613	1.242613
O	11.183517	1.242613	3.278451
O	8.698291	-1.242613	3.727839
O	16.153969	1.242613	1.242613
O	13.668743	-1.242613	1.692001
O	11.632904	-1.242613	3.727839
O	13.668743	0.793225	3.727839
O	14.118130	-3.727839	1.242613
O	16.153969	-1.692001	1.242613
O	11.183517	-3.727839	4.177227
Y	7.455678	0.000000	2.485226
Y	12.426130	-2.485226	0.000000
Y	14.911356	0.000000	0.000000
Y	9.940904	-2.485226	2.485226
Mn	0.000000	4.970452	4.970452
Mn	2.485226	7.455678	4.970452
Mn	0.000000	7.455678	7.455678
Mn	2.485226	4.970452	7.455678
O	3.727839	8.698291	5.763677
O	-1.242613	6.662452	8.698291
O	0.793225	8.698291	8.698291
O	1.242613	4.177227	6.213065
O	3.278451	6.213065	6.213065
O	1.242613	6.213065	8.248903
O	-1.242613	3.727839	8.698291
O	6.213065	6.213065	6.213065
O	3.727839	3.727839	6.662452
O	1.692001	3.727839	8.698291
O	3.727839	5.763677	8.698291
O	4.177227	1.242613	6.213065
O	6.213065	3.278451	6.213065
O	1.242613	1.242613	9.147678
Y	-2.485226	4.970452	7.455678
Y	2.485226	2.485226	4.970452
Y	4.970452	4.970452	4.970452
Y	0.000000	2.485226	7.455678
Mn	4.970452	0.000000	4.970452
Mn	7.455678	2.485226	4.970452
Mn	4.970452	2.485226	7.455678
Mn	7.455678	0.000000	7.455678
O	8.698291	3.727839	5.763677
O	3.727839	1.692001	8.698291
O	5.763677	3.727839	8.698291
O	6.213065	-0.793225	6.213065
O	8.248903	1.242613	6.213065
O	6.213065	1.242613	8.248903
O	3.727839	-1.242613	8.698291
O	11.183517	1.242613	6.213065
O	8.698291	-1.242613	6.662452
O	6.662452	-1.242613	8.698291
O	8.698291	0.793225	8.698291
O	9.147678	-3.727839	6.213065
O	11.183517	-1.692001	6.213065
O	6.213065	-3.727839	9.147678
Y	2.485226	0.000000	7.455678
Y	7.455678	-2.485226	4.970452
Y	9.940904	0.000000	4.970452
Y	4.970452	-2.485226	7.455678
