40

Bi	0.000000	0.000000	0.000000
Hf	2.064990	2.064990	2.064990
O	2.064990	2.064990	0.000000
O	0.000000	2.064990	2.064990
O	2.064990	0.000000	2.064990
Bi	0.000000	0.000000	4.129993
Hf	2.064990	2.064990	6.194983
O	2.064990	2.064990	4.129993
O	0.000000	2.064990	6.194983
O	2.064990	0.000000	6.194983
Bi	0.000000	4.129993	0.000000
Hf	2.064990	6.194983	2.064990
O	2.064990	6.194983	0.000000
O	0.000000	6.194983	2.064990
O	2.064990	4.129993	2.064990
Bi	0.000000	4.129993	4.129993
Hf	2.064990	6.194983	6.194983
O	2.064990	6.194983	4.129993
O	0.000000	6.194983	6.194983
O	2.064990	4.129993	6.194983
Bi	4.129993	0.000000	0.000000
Hf	6.194983	2.064990	2.064990
O	6.194983	2.064990	0.000000
O	4.129993	2.064990	2.064990
O	6.194983	0.000000	2.064990
Bi	4.129993	0.000000	4.129993
Hf	6.194983	2.064990	6.194983
O	6.194983	2.064990	4.129993
O	4.129993	2.064990	6.194983
O	6.194983	0.000000	6.194983
Bi	4.129993	4.129993	0.000000
Hf	6.194983	6.194983	2.064990
O	6.194983	6.194983	0.000000
O	4.129993	6.194983	2.064990
O	6.194983	4.129993	2.064990
Bi	4.129993	4.129993	4.129993
Hf	6.194983	6.194983	6.194983
O	6.194983	6.194983	4.129993
O	4.129993	6.194983	6.194983
O	6.194983	4.129993	6.194983
