40

Ir	1.977551	1.977551	1.977551
O	0.000000	1.977551	1.977551
O	1.977551	0.000000	1.977551
O	1.977551	1.977551	0.000000
Tc	0.000000	0.000000	0.000000
Ir	1.977551	1.977551	5.932654
O	0.000000	1.977551	5.932654
O	1.977551	0.000000	5.932654
O	1.977551	1.977551	3.955103
Tc	0.000000	0.000000	3.955103
Ir	1.977551	5.932654	1.977551
O	0.000000	5.932654	1.977551
O	1.977551	3.955103	1.977551
O	1.977551	5.932654	0.000000
Tc	0.000000	3.955103	0.000000
Ir	1.977551	5.932654	5.932654
O	0.000000	5.932654	5.932654
O	1.977551	3.955103	5.932654
O	1.977551	5.932654	3.955103
Tc	0.000000	3.955103	3.955103
Ir	5.932654	1.977551	1.977551
O	3.955103	1.977551	1.977551
O	5.932654	0.000000	1.977551
O	5.932654	1.977551	0.000000
Tc	3.955103	0.000000	0.000000
Ir	5.932654	1.977551	5.932654
O	3.955103	1.977551	5.932654
O	5.932654	0.000000	5.932654
O	5.932654	1.977551	3.955103
Tc	3.955103	0.000000	3.955103
Ir	5.932654	5.932654	1.977551
O	3.955103	5.932654	1.977551
O	5.932654	3.955103	1.977551
O	5.932654	5.932654	0.000000
Tc	3.955103	3.955103	0.000000
Ir	5.932654	5.932654	5.932654
O	3.955103	5.932654	5.932654
O	5.932654	3.955103	5.932654
O	5.932654	5.932654	3.955103
Tc	3.955103	3.955103	3.955103
