176

La	-1.349484	-1.349484	1.349484
La	-4.048453	-1.349484	4.048453
La	-4.048453	-4.048453	1.349484
La	-1.349484	-4.048453	4.048453
O	0.000000	0.000000	0.000000
O	-2.698969	-2.698969	2.698969
O	-0.000000	0.000000	3.142174
O	-2.255763	0.000000	5.397937
O	-0.000000	-3.142174	0.000000
O	2.698969	-0.443206	2.698969
O	2.698969	-2.698969	0.443206
O	0.443206	-2.698969	2.698969
O	2.255763	0.000000	5.397937
O	0.000000	0.000000	7.653700
O	0.000000	-2.255763	5.397937
O	4.954731	-2.698969	2.698969
O	2.698969	-2.698969	4.954731
O	2.698969	-4.954731	2.698969
Zr	-1.349484	-4.048453	-1.349484
Zr	1.349484	-1.349484	4.048453
Zr	-1.349484	-1.349484	6.747421
Zr	1.349484	-4.048453	1.349484
La	4.048453	-1.349484	6.747422
La	1.349484	-1.349484	9.446390
La	1.349484	-4.048453	6.747422
La	4.048453	-4.048453	9.446390
O	5.397937	0.000000	5.397937
O	2.698969	-2.698969	8.096906
O	5.397937	0.000000	8.540112
O	3.142174	0.000000	10.795874
O	5.397937	-3.142174	5.397937
O	8.096906	-0.443206	8.096906
O	8.096906	-2.698969	5.841143
O	5.841143	-2.698969	8.096906
O	7.653700	0.000000	10.795874
O	5.397937	0.000000	13.051637
O	5.397937	-2.255763	10.795874
O	10.352669	-2.698969	8.096906
O	8.096906	-2.698969	10.352669
O	8.096906	-4.954731	8.096906
Zr	4.048453	-4.048453	4.048453
Zr	6.747422	-1.349484	9.446390
Zr	4.048453	-1.349484	12.145359
Zr	6.747422	-4.048453	6.747422
La	-1.349484	-6.747422	-4.048453
La	-4.048453	-6.747422	-1.349484
La	-4.048453	-9.446390	-4.048453
La	-1.349484	-9.446390	-1.349484
O	0.000000	-5.397937	-5.397937
O	-2.698969	-8.096906	-2.698969
O	-0.000000	-5.397937	-2.255763
O	-2.255763	-5.397937	0.000000
O	-0.000000	-8.540112	-5.397937
O	2.698969	-5.841143	-2.698969
O	2.698969	-8.096906	-4.954731
O	0.443206	-8.096906	-2.698969
O	2.255763	-5.397937	0.000000
O	0.000000	-5.397937	2.255763
O	0.000000	-7.653700	0.000000
O	4.954731	-8.096906	-2.698969
O	2.698969	-8.096906	-0.443206
O	2.698969	-10.352669	-2.698969
Zr	-1.349484	-9.446390	-6.747422
Zr	1.349484	-6.747422	-1.349484
Zr	-1.349484	-6.747422	1.349484
Zr	1.349484	-9.446390	-4.048453
La	4.048453	-6.747422	1.349484
La	1.349484	-6.747422	4.048453
La	1.349484	-9.446390	1.349484
La	4.048453	-9.446390	4.048453
O	5.397937	-5.397937	0.000000
O	2.698969	-8.096906	2.698969
O	5.397937	-5.397937	3.142174
O	3.142174	-5.397937	5.397937
O	5.397937	-8.540112	0.000000
O	8.096906	-5.841143	2.698969
O	8.096906	-8.096906	0.443206
O	5.841143	-8.096906	2.698969
O	7.653700	-5.397937	5.397937
O	5.397937	-5.397937	7.653700
O	5.397937	-7.653700	5.397937
O	10.352669	-8.096906	2.698969
O	8.096906	-8.096906	4.954731
O	8.096906	-10.352669	2.698969
Zr	4.048453	-9.446390	-1.349484
Zr	6.747422	-6.747422	4.048453
Zr	4.048453	-6.747422	6.747421
Zr	6.747422	-9.446390	1.349484
La	-6.747422	-1.349484	6.747422
La	-9.446390	-1.349484	9.446390
La	-9.446390	-4.048453	6.747422
La	-6.747422	-4.048453	9.446390
O	-5.397937	0.000000	5.397937
O	-8.096906	-2.698969	8.096906
O	-5.397937	0.000000	8.540112
O	-7.653700	0.000000	10.795874
O	-5.397937	-3.142174	5.397937
O	-2.698969	-0.443206	8.096906
O	-2.698969	-2.698969	5.841143
O	-4.954731	-2.698969	8.096906
O	-3.142174	0.000000	10.795874
O	-5.397937	0.000000	13.051637
O	-5.397937	-2.255763	10.795874
O	-0.443206	-2.698969	8.096906
O	-2.698969	-2.698969	10.352669
O	-2.698969	-4.954731	8.096906
Zr	-6.747422	-4.048453	4.048453
Zr	-4.048453	-1.349484	9.446390
Zr	-6.747422	-1.349484	12.145359
Zr	-4.048453	-4.048453	6.747422
La	-1.349484	-1.349484	12.145359
La	-4.048453	-1.349484	14.844327
La	-4.048453	-4.048453	12.145359
La	-1.349484	-4.048453	14.844327
O	0.000000	0.000000	10.795874
O	-2.698969	-2.698969	13.494843
O	0.000000	0.000000	13.938049
O	-2.255763	0.000000	16.193812
O	0.000000	-3.142174	10.795874
O	2.698969	-0.443206	13.494843
O	2.698969	-2.698969	11.239080
O	0.443206	-2.698969	13.494843
O	2.255763	0.000000	16.193812
O	0.000000	0.000000	18.449574
O	0.000000	-2.255763	16.193812
O	4.954731	-2.698969	13.494843
O	2.698969	-2.698969	15.750606
O	2.698969	-4.954731	13.494843
Zr	-1.349484	-4.048453	9.446390
Zr	1.349484	-1.349484	14.844327
Zr	-1.349484	-1.349484	17.543296
Zr	1.349484	-4.048453	12.145359
La	-6.747422	-6.747422	1.349484
La	-9.446390	-6.747422	4.048453
La	-9.446390	-9.446390	1.349484
La	-6.747422	-9.446390	4.048453
O	-5.397937	-5.397937	0.000000
O	-8.096906	-8.096906	2.698969
O	-5.397937	-5.397937	3.142174
O	-7.653700	-5.397937	5.397937
O	-5.397937	-8.540112	0.000000
O	-2.698969	-5.841143	2.698969
O	-2.698969	-8.096906	0.443206
O	-4.954731	-8.096906	2.698969
O	-3.142174	-5.397937	5.397937
O	-5.397937	-5.397937	7.653700
O	-5.397937	-7.653700	5.397937
O	-0.443206	-8.096906	2.698969
O	-2.698969	-8.096906	4.954731
O	-2.698969	-10.352669	2.698969
Zr	-6.747422	-9.446390	-1.349484
Zr	-4.048453	-6.747422	4.048453
Zr	-6.747422	-6.747422	6.747421
Zr	-4.048453	-9.446390	1.349484
La	-1.349484	-6.747422	6.747422
La	-4.048453	-6.747422	9.446390
La	-4.048453	-9.446390	6.747422
La	-1.349484	-9.446390	9.446390
O	0.000000	-5.397937	5.397937
O	-2.698969	-8.096906	8.096906
O	0.000000	-5.397937	8.540112
O	-2.255763	-5.397937	10.795874
O	0.000000	-8.540112	5.397937
O	2.698969	-5.841143	8.096906
O	2.698969	-8.096906	5.841143
O	0.443206	-8.096906	8.096906
O	2.255763	-5.397937	10.795874
O	0.000000	-5.397937	13.051637
O	0.000000	-7.653700	10.795874
O	4.954731	-8.096906	8.096906
O	2.698969	-8.096906	10.352669
O	2.698969	-10.352669	8.096906
Zr	-1.349484	-9.446390	4.048453
Zr	1.349484	-6.747422	9.446390
Zr	-1.349484	-6.747422	12.145359
Zr	1.349484	-9.446390	6.747422
