112

Dy	0.000000	0.000000	0.000000
Dy	2.450318	-2.450836	-2.450836
O	3.709192	-1.190991	-1.190991
O	-1.191444	1.190991	-3.710680
O	1.191444	-1.190991	-3.710680
O	1.258874	1.259845	-1.259845
O	6.092080	1.190991	-1.190991
O	1.258874	3.641827	-3.641827
O	3.641762	3.641827	-1.259845
O	3.641762	1.259845	-3.641827
Sn	-1.225159	-1.225418	-3.676254
Sn	3.675477	1.225418	-1.225418
Sn	6.125795	-1.225418	-1.225418
Sn	1.225159	1.225418	-3.676254
Dy	4.900636	4.901672	0.000000
Dy	7.350954	2.450836	-2.450836
O	8.609828	3.710680	-1.190991
O	3.709192	6.092663	-3.710680
O	6.092080	3.710680	-3.710680
O	6.159510	6.161516	-1.259845
O	10.992716	6.092663	-1.190991
O	6.159510	8.543499	-3.641827
O	8.542398	8.543499	-1.259845
O	8.542398	6.161516	-3.641827
Sn	3.675477	3.676254	-3.676254
Sn	8.576113	6.127090	-1.225418
Sn	11.026431	3.676254	-1.225418
Sn	6.125795	6.127090	-3.676254
Dy	-4.900636	0.000000	-4.901672
Dy	-2.450318	-2.450836	-7.352507
O	-1.191444	-1.190991	-6.092663
O	-6.092080	1.190991	-8.612352
O	-3.709192	-1.190991	-8.612352
O	-3.641762	1.259845	-6.161516
O	1.191444	1.190991	-6.092663
O	-3.641762	3.641827	-8.543499
O	-1.258874	3.641827	-6.161516
O	-1.258874	1.259845	-8.543499
Sn	-6.125795	-1.225418	-8.577925
Sn	-1.225159	1.225418	-6.127090
Sn	1.225159	-1.225418	-6.127090
Sn	-3.675477	1.225418	-8.577925
Dy	0.000000	4.901672	-4.901672
Dy	2.450318	2.450836	-7.352507
O	3.709192	3.710680	-6.092663
O	-1.191444	6.092663	-8.612352
O	1.191444	3.710680	-8.612352
O	1.258874	6.161516	-6.161516
O	6.092080	6.092663	-6.092663
O	1.258874	8.543499	-8.543499
O	3.641762	8.543499	-6.161516
O	3.641762	6.161516	-8.543499
Sn	-1.225159	3.676254	-8.577925
Sn	3.675477	6.127090	-6.127090
Sn	6.125795	3.676254	-6.127090
Sn	1.225159	6.127090	-8.577925
Dy	4.900636	-4.901672	0.000000
Dy	7.350954	-7.352507	-2.450836
O	8.609828	-6.092663	-1.190991
O	3.709192	-3.710680	-3.710680
O	6.092080	-6.092663	-3.710680
O	6.159510	-3.641827	-1.259845
O	10.992716	-3.710680	-1.190991
O	6.159510	-1.259845	-3.641827
O	8.542398	-1.259845	-1.259845
O	8.542398	-3.641827	-3.641827
Sn	3.675477	-6.127090	-3.676254
Sn	8.576113	-3.676254	-1.225418
Sn	11.026431	-6.127090	-1.225418
Sn	6.125795	-3.676254	-3.676254
Dy	9.801272	0.000000	0.000000
Dy	12.251590	-2.450836	-2.450836
O	13.510464	-1.190991	-1.190991
O	8.609828	1.190991	-3.710680
O	10.992716	-1.190991	-3.710680
O	11.060146	1.259845	-1.259845
O	15.893352	1.190991	-1.190991
O	11.060146	3.641827	-3.641827
O	13.443034	3.641827	-1.259845
O	13.443034	1.259845	-3.641827
Sn	8.576113	-1.225418	-3.676254
Sn	13.476749	1.225418	-1.225418
Sn	15.927067	-1.225418	-1.225418
Sn	11.026431	1.225418	-3.676254
Dy	0.000000	-4.901672	-4.901672
Dy	2.450318	-7.352507	-7.352507
O	3.709192	-6.092663	-6.092663
O	-1.191444	-3.710680	-8.612352
O	1.191444	-6.092663	-8.612352
O	1.258874	-3.641827	-6.161516
O	6.092080	-3.710680	-6.092663
O	1.258874	-1.259845	-8.543499
O	3.641762	-1.259845	-6.161516
O	3.641762	-3.641827	-8.543499
Sn	-1.225159	-6.127090	-8.577925
Sn	3.675477	-3.676254	-6.127090
Sn	6.125795	-6.127090	-6.127090
Sn	1.225159	-3.676254	-8.577925
Dy	4.900636	0.000000	-4.901672
Dy	7.350954	-2.450836	-7.352507
O	8.609828	-1.190991	-6.092663
O	3.709192	1.190991	-8.612352
O	6.092080	-1.190991	-8.612352
O	6.159510	1.259845	-6.161516
O	10.992716	1.190991	-6.092663
O	6.159510	3.641827	-8.543499
O	8.542398	3.641827	-6.161516
O	8.542398	1.259845	-8.543499
Sn	3.675477	-1.225418	-8.577925
Sn	8.576113	1.225418	-6.127090
Sn	11.026431	-1.225418	-6.127090
Sn	6.125795	1.225418	-8.577925
