40

Lu	2.065225	2.065225	2.065225
O	2.065225	2.065225	0.000000
O	0.000000	2.065225	2.065225
O	2.065225	0.000000	2.065225
Tm	0.000000	0.000000	0.000000
Lu	2.065225	2.065225	6.195676
O	2.065225	2.065225	4.130451
O	0.000000	2.065225	6.195676
O	2.065225	0.000000	6.195676
Tm	0.000000	0.000000	4.130451
Lu	2.065225	6.195676	2.065225
O	2.065225	6.195676	0.000000
O	0.000000	6.195676	2.065225
O	2.065225	4.130451	2.065225
Tm	0.000000	4.130451	0.000000
Lu	2.065225	6.195676	6.195676
O	2.065225	6.195676	4.130451
O	0.000000	6.195676	6.195676
O	2.065225	4.130451	6.195676
Tm	0.000000	4.130451	4.130451
Lu	6.195676	2.065225	2.065225
O	6.195676	2.065225	0.000000
O	4.130451	2.065225	2.065225
O	6.195676	0.000000	2.065225
Tm	4.130451	0.000000	0.000000
Lu	6.195676	2.065225	6.195676
O	6.195676	2.065225	4.130451
O	4.130451	2.065225	6.195676
O	6.195676	0.000000	6.195676
Tm	4.130451	0.000000	4.130451
Lu	6.195676	6.195676	2.065225
O	6.195676	6.195676	0.000000
O	4.130451	6.195676	2.065225
O	6.195676	4.130451	2.065225
Tm	4.130451	4.130451	0.000000
Lu	6.195676	6.195676	6.195676
O	6.195676	6.195676	4.130451
O	4.130451	6.195676	6.195676
O	6.195676	4.130451	6.195676
Tm	4.130451	4.130451	4.130451
