40

K	2.226911	2.226911	2.226911
O	0.000000	2.226911	2.226911
O	2.226911	0.000000	2.226911
O	2.226911	2.226911	0.000000
Ru	0.000000	0.000000	0.000000
K	2.226911	2.226911	6.680732
O	0.000000	2.226911	6.680732
O	2.226911	0.000000	6.680732
O	2.226911	2.226911	4.453822
Ru	0.000000	0.000000	4.453822
K	2.226911	6.680732	2.226911
O	0.000000	6.680732	2.226911
O	2.226911	4.453822	2.226911
O	2.226911	6.680732	0.000000
Ru	0.000000	4.453822	0.000000
K	2.226911	6.680732	6.680732
O	0.000000	6.680732	6.680732
O	2.226911	4.453822	6.680732
O	2.226911	6.680732	4.453822
Ru	0.000000	4.453822	4.453822
K	6.680732	2.226911	2.226911
O	4.453822	2.226911	2.226911
O	6.680732	0.000000	2.226911
O	6.680732	2.226911	0.000000
Ru	4.453822	0.000000	0.000000
K	6.680732	2.226911	6.680732
O	4.453822	2.226911	6.680732
O	6.680732	0.000000	6.680732
O	6.680732	2.226911	4.453822
Ru	4.453822	0.000000	4.453822
K	6.680732	6.680732	2.226911
O	4.453822	6.680732	2.226911
O	6.680732	4.453822	2.226911
O	6.680732	6.680732	0.000000
Ru	4.453822	4.453822	0.000000
K	6.680732	6.680732	6.680732
O	4.453822	6.680732	6.680732
O	6.680732	4.453822	6.680732
O	6.680732	6.680732	4.453822
Ru	4.453822	4.453822	4.453822
