40

I	2.658626	2.658626	2.658626
K	2.658626	0.000000	0.000000
K	0.000000	2.658626	0.000000
K	0.000000	0.000000	2.658626
O	0.000000	0.000000	0.000000
I	2.658626	2.658626	7.975879
K	2.658626	0.000000	5.317253
K	0.000000	2.658626	5.317253
K	0.000000	0.000000	7.975879
O	0.000000	0.000000	5.317253
I	2.658626	7.975879	2.658626
K	2.658626	5.317253	0.000000
K	0.000000	7.975879	0.000000
K	0.000000	5.317253	2.658626
O	0.000000	5.317253	0.000000
I	2.658626	7.975879	7.975879
K	2.658626	5.317253	5.317253
K	0.000000	7.975879	5.317253
K	0.000000	5.317253	7.975879
O	0.000000	5.317253	5.317253
I	7.975879	2.658626	2.658626
K	7.975879	0.000000	0.000000
K	5.317253	2.658626	0.000000
K	5.317253	0.000000	2.658626
O	5.317253	0.000000	0.000000
I	7.975879	2.658626	7.975879
K	7.975879	0.000000	5.317253
K	5.317253	2.658626	5.317253
K	5.317253	0.000000	7.975879
O	5.317253	0.000000	5.317253
I	7.975879	7.975879	2.658626
K	7.975879	5.317253	0.000000
K	5.317253	7.975879	0.000000
K	5.317253	5.317253	2.658626
O	5.317253	5.317253	0.000000
I	7.975879	7.975879	7.975879
K	7.975879	5.317253	5.317253
K	5.317253	7.975879	5.317253
K	5.317253	5.317253	7.975879
O	5.317253	5.317253	5.317253
