112

Be	0.000000	0.000000	0.000000
Be	2.322202	-2.322152	-2.322152
O	1.072593	1.072607	-1.072607
O	-1.249609	1.249544	-3.394759
O	3.394795	-1.249544	-1.249544
O	1.249609	-1.249544	-3.394759
O	1.072593	3.571696	-3.571696
O	3.571812	3.571696	-1.072607
O	3.571811	1.072607	-3.571696
O	5.894014	1.249544	-1.249544
Pr	-1.161101	-1.161071	-3.483222
Pr	1.161101	1.161071	-3.483222
Pr	3.483303	1.161071	-1.161071
Pr	5.805505	-1.161071	-1.161071
Be	4.644403	4.644303	0.000000
Be	6.966606	2.322151	-2.322152
O	5.716996	5.716910	-1.072607
O	3.394794	5.893847	-3.394759
O	8.039199	3.394758	-1.249544
O	5.894013	3.394758	-3.394759
O	5.716996	8.215999	-3.571696
O	8.216215	8.215999	-1.072607
O	8.216215	5.716910	-3.571696
O	10.538417	5.893847	-1.249544
Pr	3.483302	3.483232	-3.483222
Pr	5.805505	5.805374	-3.483222
Pr	8.127707	5.805374	-1.161071
Pr	10.449909	3.483232	-1.161071
Be	-4.644403	0.000000	-4.644303
Be	-2.322201	-2.322152	-6.966454
O	-3.571810	1.072607	-5.716910
O	-5.894013	1.249544	-8.039062
O	-1.249608	-1.249544	-5.893847
O	-3.394794	-1.249544	-8.039062
O	-3.571810	3.571696	-8.215999
O	-1.072592	3.571696	-5.716910
O	-1.072592	1.072607	-8.215999
O	1.249610	1.249544	-5.893847
Pr	-5.805505	-1.161071	-8.127525
Pr	-3.483302	1.161071	-8.127525
Pr	-1.161100	1.161071	-5.805374
Pr	1.161102	-1.161071	-5.805374
Be	0.000000	4.644303	-4.644303
Be	2.322202	2.322151	-6.966454
O	1.072593	5.716910	-5.716910
O	-1.249609	5.893847	-8.039062
O	3.394795	3.394758	-5.893847
O	1.249609	3.394758	-8.039062
O	1.072593	8.215999	-8.215999
O	3.571812	8.215999	-5.716910
O	3.571811	5.716910	-8.215999
O	5.894014	5.893847	-5.893847
Pr	-1.161101	3.483232	-8.127525
Pr	1.161101	5.805374	-8.127525
Pr	3.483303	5.805374	-5.805374
Pr	5.805505	3.483232	-5.805374
Be	4.644403	-4.644303	0.000000
Be	6.966606	-6.966454	-2.322152
O	5.716996	-3.571695	-1.072607
O	3.394794	-3.394758	-3.394759
O	8.039199	-5.893847	-1.249544
O	5.894013	-5.893847	-3.394759
O	5.716996	-1.072607	-3.571696
O	8.216215	-1.072607	-1.072607
O	8.216215	-3.571695	-3.571696
O	10.538417	-3.394759	-1.249544
Pr	3.483302	-5.805374	-3.483222
Pr	5.805505	-3.483232	-3.483222
Pr	8.127707	-3.483232	-1.161071
Pr	10.449909	-5.805374	-1.161071
Be	9.288807	0.000000	0.000000
Be	11.611009	-2.322152	-2.322152
O	10.361400	1.072607	-1.072607
O	8.039198	1.249544	-3.394759
O	12.683602	-1.249544	-1.249544
O	10.538416	-1.249544	-3.394759
O	10.361400	3.571696	-3.571696
O	12.860618	3.571696	-1.072607
O	12.860618	1.072607	-3.571696
O	15.182820	1.249544	-1.249544
Pr	8.127706	-1.161071	-3.483222
Pr	10.449908	1.161071	-3.483222
Pr	12.772110	1.161071	-1.161071
Pr	15.094312	-1.161071	-1.161071
Be	0.000000	-4.644303	-4.644303
Be	2.322202	-6.966454	-6.966454
O	1.072593	-3.571695	-5.716910
O	-1.249609	-3.394758	-8.039062
O	3.394795	-5.893847	-5.893847
O	1.249609	-5.893847	-8.039062
O	1.072593	-1.072607	-8.215999
O	3.571812	-1.072607	-5.716910
O	3.571811	-3.571695	-8.215999
O	5.894014	-3.394759	-5.893847
Pr	-1.161101	-5.805374	-8.127525
Pr	1.161101	-3.483232	-8.127525
Pr	3.483303	-3.483232	-5.805374
Pr	5.805505	-5.805374	-5.805374
Be	4.644403	0.000000	-4.644303
Be	6.966606	-2.322152	-6.966454
O	5.716996	1.072607	-5.716910
O	3.394794	1.249544	-8.039062
O	8.039199	-1.249544	-5.893847
O	5.894013	-1.249544	-8.039062
O	5.716996	3.571696	-8.215999
O	8.216215	3.571696	-5.716910
O	8.216215	1.072607	-8.215999
O	10.538417	1.249544	-5.893847
Pr	3.483302	-1.161071	-8.127525
Pr	5.805505	1.161071	-8.127525
Pr	8.127707	1.161071	-5.805374
Pr	10.449909	-1.161071	-5.805374
