40

K	2.527416	2.527416	2.527416
O	0.000000	2.527416	2.527416
O	2.527416	0.000000	2.527416
O	2.527416	2.527416	0.000000
Te	0.000000	0.000000	0.000000
K	2.527416	2.527416	7.582248
O	0.000000	2.527416	7.582248
O	2.527416	0.000000	7.582248
O	2.527416	2.527416	5.054832
Te	0.000000	0.000000	5.054832
K	2.527416	7.582248	2.527416
O	0.000000	7.582248	2.527416
O	2.527416	5.054832	2.527416
O	2.527416	7.582248	0.000000
Te	0.000000	5.054832	0.000000
K	2.527416	7.582248	7.582248
O	0.000000	7.582248	7.582248
O	2.527416	5.054832	7.582248
O	2.527416	7.582248	5.054832
Te	0.000000	5.054832	5.054832
K	7.582248	2.527416	2.527416
O	5.054832	2.527416	2.527416
O	7.582248	0.000000	2.527416
O	7.582248	2.527416	0.000000
Te	5.054832	0.000000	0.000000
K	7.582248	2.527416	7.582248
O	5.054832	2.527416	7.582248
O	7.582248	0.000000	7.582248
O	7.582248	2.527416	5.054832
Te	5.054832	0.000000	5.054832
K	7.582248	7.582248	2.527416
O	5.054832	7.582248	2.527416
O	7.582248	5.054832	2.527416
O	7.582248	7.582248	0.000000
Te	5.054832	5.054832	0.000000
K	7.582248	7.582248	7.582248
O	5.054832	7.582248	7.582248
O	7.582248	5.054832	7.582248
O	7.582248	7.582248	5.054832
Te	5.054832	5.054832	5.054832
