40

K	2.526466	2.526466	2.526466
O	0.000000	2.526466	2.526466
O	2.526466	0.000000	2.526466
O	2.526466	2.526466	0.000000
Te	0.000000	0.000000	0.000000
K	2.526466	2.526466	7.579399
O	0.000000	2.526466	7.579399
O	2.526466	0.000000	7.579399
O	2.526466	2.526466	5.052933
Te	0.000000	0.000000	5.052933
K	2.526466	7.579399	2.526466
O	0.000000	7.579399	2.526466
O	2.526466	5.052933	2.526466
O	2.526466	7.579399	0.000000
Te	0.000000	5.052933	0.000000
K	2.526466	7.579399	7.579399
O	0.000000	7.579399	7.579399
O	2.526466	5.052933	7.579399
O	2.526466	7.579399	5.052933
Te	0.000000	5.052933	5.052933
K	7.579399	2.526466	2.526466
O	5.052933	2.526466	2.526466
O	7.579399	0.000000	2.526466
O	7.579399	2.526466	0.000000
Te	5.052933	0.000000	0.000000
K	7.579399	2.526466	7.579399
O	5.052933	2.526466	7.579399
O	7.579399	0.000000	7.579399
O	7.579399	2.526466	5.052933
Te	5.052933	0.000000	5.052933
K	7.579399	7.579399	2.526466
O	5.052933	7.579399	2.526466
O	7.579399	5.052933	2.526466
O	7.579399	7.579399	0.000000
Te	5.052933	5.052933	0.000000
K	7.579399	7.579399	7.579399
O	5.052933	7.579399	7.579399
O	7.579399	5.052933	7.579399
O	7.579399	7.579399	5.052933
Te	5.052933	5.052933	5.052933
