40

K	0.000000	0.000000	0.000000
O	2.046700	2.046700	0.000000
O	0.000000	2.046700	2.046700
O	2.046700	0.000000	2.046700
Te	2.046700	2.046700	2.046700
K	0.000000	0.000000	4.093405
O	2.046700	2.046700	4.093405
O	0.000000	2.046700	6.140105
O	2.046700	0.000000	6.140105
Te	2.046700	2.046700	6.140105
K	0.000000	4.093405	0.000000
O	2.046700	6.140105	0.000000
O	0.000000	6.140105	2.046700
O	2.046700	4.093405	2.046700
Te	2.046700	6.140105	2.046700
K	0.000000	4.093405	4.093405
O	2.046700	6.140105	4.093405
O	0.000000	6.140105	6.140105
O	2.046700	4.093405	6.140105
Te	2.046700	6.140105	6.140105
K	4.093405	0.000000	0.000000
O	6.140105	2.046700	0.000000
O	4.093405	2.046700	2.046700
O	6.140105	0.000000	2.046700
Te	6.140105	2.046700	2.046700
K	4.093405	0.000000	4.093405
O	6.140105	2.046700	4.093405
O	4.093405	2.046700	6.140105
O	6.140105	0.000000	6.140105
Te	6.140105	2.046700	6.140105
K	4.093405	4.093405	0.000000
O	6.140105	6.140105	0.000000
O	4.093405	6.140105	2.046700
O	6.140105	4.093405	2.046700
Te	6.140105	6.140105	2.046700
K	4.093405	4.093405	4.093405
O	6.140105	6.140105	4.093405
O	4.093405	6.140105	6.140105
O	6.140105	4.093405	6.140105
Te	6.140105	6.140105	6.140105
