256

K	4.226142	8.127838	0.108148
K	3.816856	4.419133	0.301139
K	6.480788	2.362794	1.755200
K	1.755200	6.480788	2.362794
K	4.419133	0.301139	3.816856
K	4.009837	4.009837	4.009837
K	8.127838	0.108148	4.226142
K	0.301139	3.816856	4.419133
K	5.873194	5.873194	5.873194
K	2.362794	1.755200	6.480788
K	7.934850	7.934850	7.934850
K	0.108148	4.226142	8.127838
O	6.216885	5.818432	0.277566
O	1.172230	1.172230	1.172230
O	3.840429	2.019104	1.700448
O	1.700448	3.840429	2.019104
O	6.535540	7.958423	2.098891
O	4.395560	6.137098	2.417546
O	7.063758	5.290215	2.945764
O	2.019104	1.700448	3.840429
O	6.137098	2.417546	4.395560
O	2.945764	7.063758	5.290215
O	0.277566	6.216885	5.818432
O	2.417546	4.395560	6.137098
O	5.818432	0.277566	6.216885
O	7.958423	2.098891	6.535540
O	5.290215	2.945764	7.063758
O	2.098891	6.535540	7.958423
V	6.072017	6.281965	1.954023
V	2.163971	2.163971	2.163971
V	6.281965	1.954023	6.072017
V	1.954023	6.072017	6.281965
K	4.226142	8.127838	8.344133
K	3.816856	4.419133	8.537124
K	6.480788	2.362794	9.991185
K	1.755200	6.480788	10.598779
K	4.419133	0.301139	12.052841
K	4.009837	4.009837	12.245822
K	8.127838	0.108148	12.462127
K	0.301139	3.816856	12.655118
K	5.873194	5.873194	14.109179
K	2.362794	1.755200	14.716773
K	7.934850	7.934850	16.170835
K	0.108148	4.226142	16.363823
O	6.216885	5.818432	8.513551
O	1.172230	1.172230	9.408215
O	3.840429	2.019104	9.936433
O	1.700448	3.840429	10.255089
O	6.535540	7.958423	10.334876
O	4.395560	6.137098	10.653531
O	7.063758	5.290215	11.181749
O	2.019104	1.700448	12.076414
O	6.137098	2.417546	12.631545
O	2.945764	7.063758	13.526200
O	0.277566	6.216885	14.054418
O	2.417546	4.395560	14.373083
O	5.818432	0.277566	14.452870
O	7.958423	2.098891	14.771525
O	5.290215	2.945764	15.299743
O	2.098891	6.535540	16.194408
V	6.072017	6.281965	10.190008
V	2.163971	2.163971	10.399956
V	6.281965	1.954023	14.308002
V	1.954023	6.072017	14.517950
K	4.226142	16.363823	0.108148
K	3.816856	12.655118	0.301139
K	6.480788	10.598779	1.755200
K	1.755200	14.716773	2.362794
K	4.419133	8.537124	3.816856
K	4.009837	12.245822	4.009837
K	8.127838	8.344133	4.226142
K	0.301139	12.052841	4.419133
K	5.873194	14.109179	5.873194
K	2.362794	9.991185	6.480788
K	7.934850	16.170835	7.934850
K	0.108148	12.462127	8.127838
O	6.216885	14.054418	0.277566
O	1.172230	9.408215	1.172230
O	3.840429	10.255089	1.700448
O	1.700448	12.076414	2.019104
O	6.535540	16.194408	2.098891
O	4.395560	14.373083	2.417546
O	7.063758	13.526200	2.945764
O	2.019104	9.936433	3.840429
O	6.137098	10.653531	4.395560
O	2.945764	15.299743	5.290215
O	0.277566	14.452870	5.818432
O	2.417546	12.631545	6.137098
O	5.818432	8.513551	6.216885
O	7.958423	10.334876	6.535540
O	5.290215	11.181749	7.063758
O	2.098891	14.771525	7.958423
V	6.072017	14.517950	1.954023
V	2.163971	10.399956	2.163971
V	6.281965	10.190008	6.072017
V	1.954023	14.308002	6.281965
K	4.226142	16.363823	8.344133
K	3.816856	12.655118	8.537124
K	6.480788	10.598779	9.991185
K	1.755200	14.716773	10.598779
K	4.419133	8.537124	12.052841
K	4.009837	12.245822	12.245822
K	8.127838	8.344133	12.462127
K	0.301139	12.052841	12.655118
K	5.873194	14.109179	14.109179
K	2.362794	9.991185	14.716773
K	7.934850	16.170835	16.170835
K	0.108148	12.462127	16.363823
O	6.216885	14.054418	8.513551
O	1.172230	9.408215	9.408215
O	3.840429	10.255089	9.936433
O	1.700448	12.076414	10.255089
O	6.535540	16.194408	10.334876
O	4.395560	14.373083	10.653531
O	7.063758	13.526200	11.181749
O	2.019104	9.936433	12.076414
O	6.137098	10.653531	12.631545
O	2.945764	15.299743	13.526200
O	0.277566	14.452870	14.054418
O	2.417546	12.631545	14.373083
O	5.818432	8.513551	14.452870
O	7.958423	10.334876	14.771525
O	5.290215	11.181749	15.299743
O	2.098891	14.771525	16.194408
V	6.072017	14.517950	10.190008
V	2.163971	10.399956	10.399956
V	6.281965	10.190008	14.308002
V	1.954023	14.308002	14.517950
K	12.462127	8.127838	0.108148
K	12.052841	4.419133	0.301139
K	14.716773	2.362794	1.755200
K	9.991185	6.480788	2.362794
K	12.655118	0.301139	3.816856
K	12.245822	4.009837	4.009837
K	16.363823	0.108148	4.226142
K	8.537124	3.816856	4.419133
K	14.109179	5.873194	5.873194
K	10.598779	1.755200	6.480788
K	16.170835	7.934850	7.934850
K	8.344133	4.226142	8.127838
O	14.452870	5.818432	0.277566
O	9.408215	1.172230	1.172230
O	12.076414	2.019104	1.700448
O	9.936433	3.840429	2.019104
O	14.771525	7.958423	2.098891
O	12.631545	6.137098	2.417546
O	15.299743	5.290215	2.945764
O	10.255089	1.700448	3.840429
O	14.373083	2.417546	4.395560
O	11.181749	7.063758	5.290215
O	8.513551	6.216885	5.818432
O	10.653531	4.395560	6.137098
O	14.054418	0.277566	6.216885
O	16.194408	2.098891	6.535540
O	13.526200	2.945764	7.063758
O	10.334876	6.535540	7.958423
V	14.308002	6.281965	1.954023
V	10.399956	2.163971	2.163971
V	14.517950	1.954023	6.072017
V	10.190008	6.072017	6.281965
K	12.462127	8.127838	8.344133
K	12.052841	4.419133	8.537124
K	14.716773	2.362794	9.991185
K	9.991185	6.480788	10.598779
K	12.655118	0.301139	12.052841
K	12.245822	4.009837	12.245822
K	16.363823	0.108148	12.462127
K	8.537124	3.816856	12.655118
K	14.109179	5.873194	14.109179
K	10.598779	1.755200	14.716773
K	16.170835	7.934850	16.170835
K	8.344133	4.226142	16.363823
O	14.452870	5.818432	8.513551
O	9.408215	1.172230	9.408215
O	12.076414	2.019104	9.936433
O	9.936433	3.840429	10.255089
O	14.771525	7.958423	10.334876
O	12.631545	6.137098	10.653531
O	15.299743	5.290215	11.181749
O	10.255089	1.700448	12.076414
O	14.373083	2.417546	12.631545
O	11.181749	7.063758	13.526200
O	8.513551	6.216885	14.054418
O	10.653531	4.395560	14.373083
O	14.054418	0.277566	14.452870
O	16.194408	2.098891	14.771525
O	13.526200	2.945764	15.299743
O	10.334876	6.535540	16.194408
V	14.308002	6.281965	10.190008
V	10.399956	2.163971	10.399956
V	14.517950	1.954023	14.308002
V	10.190008	6.072017	14.517950
K	12.462127	16.363823	0.108148
K	12.052841	12.655118	0.301139
K	14.716773	10.598779	1.755200
K	9.991185	14.716773	2.362794
K	12.655118	8.537124	3.816856
K	12.245822	12.245822	4.009837
K	16.363823	8.344133	4.226142
K	8.537124	12.052841	4.419133
K	14.109179	14.109179	5.873194
K	10.598779	9.991185	6.480788
K	16.170835	16.170835	7.934850
K	8.344133	12.462127	8.127838
O	14.452870	14.054418	0.277566
O	9.408215	9.408215	1.172230
O	12.076414	10.255089	1.700448
O	9.936433	12.076414	2.019104
O	14.771525	16.194408	2.098891
O	12.631545	14.373083	2.417546
O	15.299743	13.526200	2.945764
O	10.255089	9.936433	3.840429
O	14.373083	10.653531	4.395560
O	11.181749	15.299743	5.290215
O	8.513551	14.452870	5.818432
O	10.653531	12.631545	6.137098
O	14.054418	8.513551	6.216885
O	16.194408	10.334876	6.535540
O	13.526200	11.181749	7.063758
O	10.334876	14.771525	7.958423
V	14.308002	14.517950	1.954023
V	10.399956	10.399956	2.163971
V	14.517950	10.190008	6.072017
V	10.190008	14.308002	6.281965
K	12.462127	16.363823	8.344133
K	12.052841	12.655118	8.537124
K	14.716773	10.598779	9.991185
K	9.991185	14.716773	10.598779
K	12.655118	8.537124	12.052841
K	12.245822	12.245822	12.245822
K	16.363823	8.344133	12.462127
K	8.537124	12.052841	12.655118
K	14.109179	14.109179	14.109179
K	10.598779	9.991185	14.716773
K	16.170835	16.170835	16.170835
K	8.344133	12.462127	16.363823
O	14.452870	14.054418	8.513551
O	9.408215	9.408215	9.408215
O	12.076414	10.255089	9.936433
O	9.936433	12.076414	10.255089
O	14.771525	16.194408	10.334876
O	12.631545	14.373083	10.653531
O	15.299743	13.526200	11.181749
O	10.255089	9.936433	12.076414
O	14.373083	10.653531	12.631545
O	11.181749	15.299743	13.526200
O	8.513551	14.452870	14.054418
O	10.653531	12.631545	14.373083
O	14.054418	8.513551	14.452870
O	16.194408	10.334876	14.771525
O	13.526200	11.181749	15.299743
O	10.334876	14.771525	16.194408
V	14.308002	14.517950	10.190008
V	10.399956	10.399956	10.399956
V	14.517950	10.190008	14.308002
V	10.190008	14.308002	14.517950
