112

Mo	0.000000	0.000000	0.000000
Mo	2.421621	-2.431810	-2.431810
Np	-1.210806	-1.215905	-3.647715
Np	1.210806	1.215905	-3.647715
Np	3.632427	1.215905	-1.215905
Np	6.054047	-1.215905	-1.215905
O	-1.287291	1.284099	-3.579520
O	3.555950	-1.284099	-1.284099
O	1.287291	-1.284099	-3.579520
O	1.134329	1.147711	-1.147711
O	6.130524	1.284099	-1.284099
O	1.134329	3.715909	-3.715909
O	3.708912	3.715909	-1.147711
O	3.708912	1.147711	-3.715909
Mo	4.843240	4.863621	0.000000
Mo	7.264861	2.431812	-2.431810
Np	3.632434	3.647716	-3.647715
Np	6.054046	6.079526	-3.647715
Np	8.475667	6.079526	-1.215905
Np	10.897288	3.647716	-1.215905
O	3.555949	6.147720	-3.579520
O	8.399190	3.579522	-1.284099
O	6.130532	3.579522	-3.579520
O	5.977570	6.011332	-1.147711
O	10.973764	6.147720	-1.284099
O	5.977570	8.579530	-3.715909
O	8.552152	8.579530	-1.147711
O	8.552152	6.011332	-3.715909
Mo	-4.843240	0.000000	-4.863621
Mo	-2.421620	-2.431810	-7.295431
Np	-6.054046	-1.215905	-8.511336
Np	-3.632434	1.215905	-8.511336
Np	-1.210814	1.215905	-6.079526
Np	1.210807	-1.215905	-6.079526
O	-6.130532	1.284099	-8.443142
O	-1.287290	-1.284099	-6.147720
O	-3.555949	-1.284099	-8.443142
O	-3.708911	1.147711	-6.011332
O	1.287283	1.284099	-6.147720
O	-3.708911	3.715909	-8.579530
O	-1.134328	3.715909	-6.011332
O	-1.134328	1.147711	-8.579530
Mo	0.000000	4.863621	-4.863621
Mo	2.421621	2.431812	-7.295431
Np	-1.210806	3.647716	-8.511336
Np	1.210806	6.079526	-8.511336
Np	3.632427	6.079526	-6.079526
Np	6.054047	3.647716	-6.079526
O	-1.287291	6.147720	-8.443142
O	3.555950	3.579522	-6.147720
O	1.287291	3.579522	-8.443142
O	1.134329	6.011332	-6.011332
O	6.130524	6.147720	-6.147720
O	1.134329	8.579530	-8.579530
O	3.708912	8.579530	-6.011332
O	3.708912	6.011332	-8.579530
Mo	4.843240	-4.863621	0.000000
Mo	7.264861	-7.295431	-2.431810
Np	3.632434	-6.079526	-3.647715
Np	6.054046	-3.647716	-3.647715
Np	8.475667	-3.647716	-1.215905
Np	10.897288	-6.079526	-1.215905
O	3.555949	-3.579522	-3.579520
O	8.399190	-6.147720	-1.284099
O	6.130532	-6.147720	-3.579520
O	5.977570	-3.715911	-1.147711
O	10.973764	-3.579522	-1.284099
O	5.977570	-1.147713	-3.715909
O	8.552152	-1.147713	-1.147711
O	8.552152	-3.715911	-3.715909
Mo	9.686481	0.000000	0.000000
Mo	12.108101	-2.431810	-2.431810
Np	8.475675	-1.215905	-3.647715
Np	10.897287	1.215905	-3.647715
Np	13.318907	1.215905	-1.215905
Np	15.740528	-1.215905	-1.215905
O	8.399189	1.284099	-3.579520
O	13.242431	-1.284099	-1.284099
O	10.973772	-1.284099	-3.579520
O	10.820810	1.147711	-1.147711
O	15.817005	1.284099	-1.284099
O	10.820810	3.715909	-3.715909
O	13.395393	3.715909	-1.147711
O	13.395393	1.147711	-3.715909
Mo	0.000000	-4.863621	-4.863621
Mo	2.421621	-7.295431	-7.295431
Np	-1.210806	-6.079526	-8.511336
Np	1.210806	-3.647716	-8.511336
Np	3.632427	-3.647716	-6.079526
Np	6.054047	-6.079526	-6.079526
O	-1.287291	-3.579522	-8.443142
O	3.555950	-6.147720	-6.147720
O	1.287291	-6.147720	-8.443142
O	1.134329	-3.715911	-6.011332
O	6.130524	-3.579522	-6.147720
O	1.134329	-1.147713	-8.579530
O	3.708912	-1.147713	-6.011332
O	3.708912	-3.715911	-8.579530
Mo	4.843240	0.000000	-4.863621
Mo	7.264861	-2.431810	-7.295431
Np	3.632434	-1.215905	-8.511336
Np	6.054046	1.215905	-8.511336
Np	8.475667	1.215905	-6.079526
Np	10.897288	-1.215905	-6.079526
O	3.555949	1.284099	-8.443142
O	8.399190	-1.284099	-6.147720
O	6.130532	-1.284099	-8.443142
O	5.977570	1.147711	-6.011332
O	10.973764	1.284099	-6.147720
O	5.977570	3.715909	-8.579530
O	8.552152	3.715909	-6.011332
O	8.552152	1.147711	-8.579530
