112

O	3.944286	-1.101409	-1.101408
O	-1.101625	1.101408	-3.945420
O	1.101625	-1.101409	-3.945420
O	1.421330	1.422006	-1.422006
O	6.147535	1.101408	-1.101408
O	1.421331	3.624823	-3.624823
O	3.624580	3.624823	-1.422006
O	3.624580	1.422006	-3.624823
Pb	0.000000	0.000000	0.000000
Pb	2.522955	-2.523414	-2.523414
Pm	-1.261478	-1.261707	-3.785121
Pm	3.784433	1.261707	-1.261707
Pm	6.307388	-1.261707	-1.261707
Pm	1.261478	1.261707	-3.785121
O	8.990196	3.945420	-1.101408
O	3.944286	6.148237	-3.945420
O	6.147535	3.945420	-3.945420
O	6.467241	6.468834	-1.422006
O	11.193446	6.148237	-1.101408
O	6.467241	8.671651	-3.624823
O	8.670491	8.671651	-1.422006
O	8.670491	6.468834	-3.624823
Pb	5.045911	5.046828	0.000000
Pb	7.568866	2.523414	-2.523414
Pm	3.784433	3.785121	-3.785121
Pm	8.830343	6.308536	-1.261707
Pm	11.353299	3.785121	-1.261707
Pm	6.307388	6.308536	-3.785121
O	-1.101625	-1.101409	-6.148237
O	-6.147535	1.101408	-8.992248
O	-3.944286	-1.101409	-8.992248
O	-3.624580	1.422006	-6.468834
O	1.101625	1.101408	-6.148237
O	-3.624580	3.624823	-8.671651
O	-1.421331	3.624823	-6.468834
O	-1.421330	1.422006	-8.671651
Pb	-5.045911	0.000000	-5.046828
Pb	-2.522955	-2.523414	-7.570243
Pm	-6.307388	-1.261707	-8.831950
Pm	-1.261478	1.261707	-6.308536
Pm	1.261478	-1.261707	-6.308536
Pm	-3.784433	1.261707	-8.831950
O	3.944286	3.945420	-6.148237
O	-1.101625	6.148237	-8.992248
O	1.101625	3.945420	-8.992248
O	1.421330	6.468834	-6.468834
O	6.147535	6.148237	-6.148237
O	1.421331	8.671651	-8.671651
O	3.624580	8.671651	-6.468834
O	3.624580	6.468834	-8.671651
Pb	0.000000	5.046828	-5.046828
Pb	2.522955	2.523414	-7.570243
Pm	-1.261478	3.785121	-8.831950
Pm	3.784433	6.308536	-6.308536
Pm	6.307388	3.785121	-6.308536
Pm	1.261478	6.308536	-8.831950
O	8.990196	-6.148237	-1.101408
O	3.944286	-3.945420	-3.945420
O	6.147535	-6.148237	-3.945420
O	6.467241	-3.624823	-1.422006
O	11.193446	-3.945420	-1.101408
O	6.467241	-1.422006	-3.624823
O	8.670491	-1.422006	-1.422006
O	8.670491	-3.624823	-3.624823
Pb	5.045911	-5.046828	0.000000
Pb	7.568866	-7.570243	-2.523414
Pm	3.784433	-6.308536	-3.785121
Pm	8.830343	-3.785121	-1.261707
Pm	11.353299	-6.308536	-1.261707
Pm	6.307388	-3.785121	-3.785121
O	14.036107	-1.101409	-1.101408
O	8.990196	1.101408	-3.945420
O	11.193446	-1.101409	-3.945420
O	11.513152	1.422006	-1.422006
O	16.239356	1.101408	-1.101408
O	11.513152	3.624823	-3.624823
O	13.716401	3.624823	-1.422006
O	13.716401	1.422006	-3.624823
Pb	10.091821	0.000000	0.000000
Pb	12.614776	-2.523414	-2.523414
Pm	8.830343	-1.261707	-3.785121
Pm	13.876254	1.261707	-1.261707
Pm	16.399209	-1.261707	-1.261707
Pm	11.353299	1.261707	-3.785121
O	3.944286	-6.148237	-6.148237
O	-1.101625	-3.945420	-8.992248
O	1.101625	-6.148237	-8.992248
O	1.421330	-3.624823	-6.468834
O	6.147535	-3.945420	-6.148237
O	1.421331	-1.422006	-8.671651
O	3.624580	-1.422006	-6.468834
O	3.624580	-3.624823	-8.671651
Pb	0.000000	-5.046828	-5.046828
Pb	2.522955	-7.570243	-7.570243
Pm	-1.261478	-6.308536	-8.831950
Pm	3.784433	-3.785121	-6.308536
Pm	6.307388	-6.308536	-6.308536
Pm	1.261478	-3.785121	-8.831950
O	8.990196	-1.101409	-6.148237
O	3.944286	1.101408	-8.992248
O	6.147535	-1.101409	-8.992248
O	6.467241	1.422006	-6.468834
O	11.193446	1.101408	-6.148237
O	6.467241	3.624823	-8.671651
O	8.670491	3.624823	-6.468834
O	8.670491	1.422006	-8.671651
Pb	5.045911	0.000000	-5.046828
Pb	7.568866	-2.523414	-7.570243
Pm	3.784433	-1.261707	-8.831950
Pm	8.830343	1.261707	-6.308536
Pm	11.353299	-1.261707	-6.308536
Pm	6.307388	1.261707	-8.831950
