112

O	3.524080	-1.183677	-1.183677
O	-1.183818	1.183677	-3.525337
O	1.183818	-1.183677	-3.525337
O	1.170131	1.170830	-1.170830
O	5.891716	1.183677	-1.183677
O	1.170131	3.538185	-3.538185
O	3.537767	3.538185	-1.170830
O	3.537767	1.170830	-3.538185
Sc	0.000000	0.000000	0.000000
Sc	2.353949	-2.354507	-2.354507
Tb	-1.176974	-1.177254	-3.531761
Tb	3.530923	1.177254	-1.177254
Tb	5.884872	-1.177254	-1.177254
Tb	1.176974	1.177254	-3.531761
O	8.231978	3.525337	-1.183677
O	3.524080	5.892692	-3.525337
O	5.891716	3.525337	-3.525337
O	5.878029	5.879845	-1.170830
O	10.599614	5.892692	-1.183677
O	5.878029	8.247199	-3.538185
O	8.245665	8.247199	-1.170830
O	8.245665	5.879845	-3.538185
Sc	4.707898	4.709015	0.000000
Sc	7.061847	2.354507	-2.354507
Tb	3.530923	3.531761	-3.531761
Tb	8.238821	5.886268	-1.177254
Tb	10.592770	3.531761	-1.177254
Tb	5.884872	5.886268	-3.531761
O	-1.183818	-1.183677	-5.892692
O	-5.891716	1.183677	-8.234352
O	-3.524080	-1.183677	-8.234352
O	-3.537767	1.170830	-5.879845
O	1.183818	1.183677	-5.892692
O	-3.537767	3.538185	-8.247199
O	-1.170131	3.538185	-5.879845
O	-1.170131	1.170830	-8.247199
Sc	-4.707898	0.000000	-4.709015
Sc	-2.353949	-2.354507	-7.063522
Tb	-5.884872	-1.177254	-8.240776
Tb	-1.176974	1.177254	-5.886268
Tb	1.176974	-1.177254	-5.886268
Tb	-3.530923	1.177254	-8.240776
O	3.524080	3.525337	-5.892692
O	-1.183818	5.892692	-8.234352
O	1.183818	3.525337	-8.234352
O	1.170131	5.879845	-5.879845
O	5.891716	5.892692	-5.892692
O	1.170131	8.247199	-8.247199
O	3.537767	8.247199	-5.879845
O	3.537767	5.879845	-8.247199
Sc	0.000000	4.709015	-4.709015
Sc	2.353949	2.354507	-7.063522
Tb	-1.176974	3.531761	-8.240776
Tb	3.530923	5.886268	-5.886268
Tb	5.884872	3.531761	-5.886268
Tb	1.176974	5.886268	-8.240776
O	8.231978	-5.892692	-1.183677
O	3.524080	-3.525337	-3.525337
O	5.891716	-5.892692	-3.525337
O	5.878029	-3.538185	-1.170830
O	10.599614	-3.525337	-1.183677
O	5.878029	-1.170830	-3.538185
O	8.245665	-1.170830	-1.170830
O	8.245665	-3.538185	-3.538185
Sc	4.707898	-4.709015	0.000000
Sc	7.061847	-7.063522	-2.354507
Tb	3.530923	-5.886268	-3.531761
Tb	8.238821	-3.531761	-1.177254
Tb	10.592770	-5.886268	-1.177254
Tb	5.884872	-3.531761	-3.531761
O	12.939876	-1.183677	-1.183677
O	8.231978	1.183677	-3.525337
O	10.599614	-1.183677	-3.525337
O	10.585927	1.170830	-1.170830
O	15.307512	1.183677	-1.183677
O	10.585927	3.538185	-3.538185
O	12.953563	3.538185	-1.170830
O	12.953563	1.170830	-3.538185
Sc	9.415796	0.000000	0.000000
Sc	11.769745	-2.354507	-2.354507
Tb	8.238821	-1.177254	-3.531761
Tb	12.946719	1.177254	-1.177254
Tb	15.300668	-1.177254	-1.177254
Tb	10.592770	1.177254	-3.531761
O	3.524080	-5.892692	-5.892692
O	-1.183818	-3.525337	-8.234352
O	1.183818	-5.892692	-8.234352
O	1.170131	-3.538185	-5.879845
O	5.891716	-3.525337	-5.892692
O	1.170131	-1.170830	-8.247199
O	3.537767	-1.170830	-5.879845
O	3.537767	-3.538185	-8.247199
Sc	0.000000	-4.709015	-4.709015
Sc	2.353949	-7.063522	-7.063522
Tb	-1.176974	-5.886268	-8.240776
Tb	3.530923	-3.531761	-5.886268
Tb	5.884872	-5.886268	-5.886268
Tb	1.176974	-3.531761	-8.240776
O	8.231978	-1.183677	-5.892692
O	3.524080	1.183677	-8.234352
O	5.891716	-1.183677	-8.234352
O	5.878029	1.170830	-5.879845
O	10.599614	1.183677	-5.892692
O	5.878029	3.538185	-8.247199
O	8.245665	3.538185	-5.879845
O	8.245665	1.170830	-8.247199
Sc	4.707898	0.000000	-4.709015
Sc	7.061847	-2.354507	-7.063522
Tb	3.530923	-1.177254	-8.240776
Tb	8.238821	1.177254	-5.886268
Tb	10.592770	-1.177254	-5.886268
Tb	5.884872	1.177254	-8.240776
