112

B	0.000000	0.000000	0.000000
B	2.237190	-2.237199	-2.237199
O	0.879812	0.879894	-0.879894
O	3.117002	-1.357305	-1.357305
O	-1.357378	1.357305	-3.117093
O	1.357378	-1.357305	-3.117093
O	0.879812	3.594494	-3.594494
O	3.594577	3.594494	-0.879894
O	3.594577	0.879894	-3.594494
O	5.831767	1.357305	-1.357305
Sr	-1.118600	-1.118599	-3.355788
Sr	5.592979	-1.118599	-1.118599
Sr	1.118600	1.118599	-3.355788
Sr	3.355789	1.118599	-1.118599
B	4.474387	4.474390	0.000000
B	6.711577	2.237191	-2.237199
O	5.354199	5.354284	-0.879894
O	7.591389	3.117085	-1.357305
O	3.117009	5.831695	-3.117093
O	5.831765	3.117085	-3.117093
O	5.354199	8.068883	-3.594494
O	8.068964	8.068883	-0.879894
O	8.068964	5.354284	-3.594494
O	10.306154	5.831695	-1.357305
Sr	3.355787	3.355790	-3.355788
Sr	10.067366	3.355790	-1.118599
Sr	5.592987	5.592989	-3.355788
Sr	7.830176	5.592989	-1.118599
B	-4.474387	0.000000	-4.474390
B	-2.237197	-2.237199	-6.711588
O	-3.594575	0.879894	-5.354284
O	-1.357385	-1.357305	-5.831695
O	-5.831765	1.357305	-7.591482
O	-3.117009	-1.357305	-7.591482
O	-3.594575	3.594494	-8.068883
O	-0.879810	3.594494	-5.354284
O	-0.879810	0.879894	-8.068883
O	1.357380	1.357305	-5.831695
Sr	-5.592987	-1.118599	-7.830178
Sr	1.118592	-1.118599	-5.592989
Sr	-3.355787	1.118599	-7.830178
Sr	-1.118598	1.118599	-5.592989
B	0.000000	4.474390	-4.474390
B	2.237190	2.237191	-6.711588
O	0.879812	5.354284	-5.354284
O	3.117002	3.117085	-5.831695
O	-1.357378	5.831695	-7.591482
O	1.357378	3.117085	-7.591482
O	0.879812	8.068883	-8.068883
O	3.594577	8.068883	-5.354284
O	3.594577	5.354284	-8.068883
O	5.831767	5.831695	-5.831695
Sr	-1.118600	3.355790	-7.830178
Sr	5.592979	3.355790	-5.592989
Sr	1.118600	5.592989	-7.830178
Sr	3.355789	5.592989	-5.592989
B	4.474387	-4.474390	0.000000
B	6.711577	-6.711588	-2.237199
O	5.354199	-3.594496	-0.879894
O	7.591389	-5.831695	-1.357305
O	3.117009	-3.117085	-3.117093
O	5.831765	-5.831695	-3.117093
O	5.354199	-0.879896	-3.594494
O	8.068964	-0.879896	-0.879894
O	8.068964	-3.594496	-3.594494
O	10.306154	-3.117085	-1.357305
Sr	3.355787	-5.592989	-3.355788
Sr	10.067366	-5.592989	-1.118599
Sr	5.592987	-3.355790	-3.355788
Sr	7.830176	-3.355790	-1.118599
B	8.948774	0.000000	0.000000
B	11.185964	-2.237199	-2.237199
O	9.828586	0.879894	-0.879894
O	12.065776	-1.357305	-1.357305
O	7.591396	1.357305	-3.117093
O	10.306152	-1.357305	-3.117093
O	9.828586	3.594494	-3.594494
O	12.543351	3.594494	-0.879894
O	12.543351	0.879894	-3.594494
O	14.780541	1.357305	-1.357305
Sr	7.830174	-1.118599	-3.355788
Sr	14.541753	-1.118599	-1.118599
Sr	10.067374	1.118599	-3.355788
Sr	12.304563	1.118599	-1.118599
B	0.000000	-4.474390	-4.474390
B	2.237190	-6.711588	-6.711588
O	0.879812	-3.594496	-5.354284
O	3.117002	-5.831695	-5.831695
O	-1.357378	-3.117085	-7.591482
O	1.357378	-5.831695	-7.591482
O	0.879812	-0.879896	-8.068883
O	3.594577	-0.879896	-5.354284
O	3.594577	-3.594496	-8.068883
O	5.831767	-3.117085	-5.831695
Sr	-1.118600	-5.592989	-7.830178
Sr	5.592979	-5.592989	-5.592989
Sr	1.118600	-3.355790	-7.830178
Sr	3.355789	-3.355790	-5.592989
B	4.474387	0.000000	-4.474390
B	6.711577	-2.237199	-6.711588
O	5.354199	0.879894	-5.354284
O	7.591389	-1.357305	-5.831695
O	3.117009	1.357305	-7.591482
O	5.831765	-1.357305	-7.591482
O	5.354199	3.594494	-8.068883
O	8.068964	3.594494	-5.354284
O	8.068964	0.879894	-8.068883
O	10.306154	1.357305	-5.831695
Sr	3.355787	-1.118599	-7.830178
Sr	10.067366	-1.118599	-5.592989
Sr	5.592987	1.118599	-7.830178
Sr	7.830176	1.118599	-5.592989
