176

Nd	-2.674567	0.000000	2.674567
Nd	2.674567	-2.674567	0.000000
Nd	5.349134	0.000000	0.000000
Nd	0.000000	-2.674567	2.674567
O	4.011850	4.011850	0.924906
O	-1.337283	1.749661	4.011850
O	0.924906	4.011850	4.011850
O	-1.337283	-1.337283	4.011850
O	1.337283	-0.924906	1.337283
O	3.599472	1.337283	1.337283
O	1.337283	1.337283	3.599472
O	4.011850	-1.337283	1.749661
O	1.749661	-1.337283	4.011850
O	4.011850	0.924906	4.011850
O	6.686417	1.337283	1.337283
O	4.424228	-4.011850	1.337283
O	6.686417	-1.749661	1.337283
O	1.337283	-4.011850	4.424228
Zr	0.000000	0.000000	0.000000
Zr	2.674567	2.674567	0.000000
Zr	0.000000	2.674567	2.674567
Zr	2.674567	0.000000	2.674567
Nd	2.674567	-5.349134	2.674567
Nd	8.023700	-8.023700	0.000000
Nd	10.698267	-5.349134	0.000000
Nd	5.349134	-8.023700	2.674567
O	9.360984	-1.337283	0.924906
O	4.011850	-3.599472	4.011850
O	6.274039	-1.337283	4.011850
O	4.011850	-6.686417	4.011850
O	6.686417	-6.274039	1.337283
O	8.948606	-4.011850	1.337283
O	6.686417	-4.011850	3.599472
O	9.360984	-6.686417	1.749661
O	7.098795	-6.686417	4.011850
O	9.360984	-4.424228	4.011850
O	12.035550	-4.011850	1.337283
O	9.773361	-9.360984	1.337283
O	12.035550	-7.098795	1.337283
O	6.686417	-9.360984	4.424228
Zr	5.349134	-5.349134	0.000000
Zr	8.023700	-2.674567	0.000000
Zr	5.349134	-2.674567	2.674567
Zr	8.023700	-5.349134	2.674567
Nd	-8.023700	0.000000	8.023700
Nd	-2.674567	-2.674567	5.349134
Nd	0.000000	0.000000	5.349134
Nd	-5.349134	-2.674567	8.023700
O	-1.337283	4.011850	6.274039
O	-6.686417	1.749661	9.360984
O	-4.424228	4.011850	9.360984
O	-6.686417	-1.337283	9.360984
O	-4.011850	-0.924906	6.686417
O	-1.749661	1.337283	6.686417
O	-4.011850	1.337283	8.948606
O	-1.337283	-1.337283	7.098795
O	-3.599472	-1.337283	9.360984
O	-1.337283	0.924906	9.360984
O	1.337283	1.337283	6.686417
O	-0.924906	-4.011850	6.686417
O	1.337283	-1.749661	6.686417
O	-4.011850	-4.011850	9.773361
Zr	-5.349134	0.000000	5.349134
Zr	-2.674567	2.674567	5.349134
Zr	-5.349134	2.674567	8.023700
Zr	-2.674567	0.000000	8.023700
Nd	-2.674567	-5.349134	8.023700
Nd	2.674567	-8.023700	5.349134
Nd	5.349134	-5.349134	5.349134
Nd	0.000000	-8.023700	8.023700
O	4.011850	-1.337283	6.274039
O	-1.337283	-3.599472	9.360984
O	0.924906	-1.337283	9.360984
O	-1.337283	-6.686417	9.360984
O	1.337283	-6.274039	6.686417
O	3.599472	-4.011850	6.686417
O	1.337283	-4.011850	8.948606
O	4.011850	-6.686417	7.098795
O	1.749661	-6.686417	9.360984
O	4.011850	-4.424228	9.360984
O	6.686417	-4.011850	6.686417
O	4.424228	-9.360984	6.686417
O	6.686417	-7.098795	6.686417
O	1.337283	-9.360984	9.773361
Zr	0.000000	-5.349134	5.349134
Zr	2.674567	-2.674567	5.349134
Zr	0.000000	-2.674567	8.023700
Zr	2.674567	-5.349134	8.023700
Nd	2.674567	5.349134	2.674567
Nd	8.023700	2.674567	0.000000
Nd	10.698267	5.349134	0.000000
Nd	5.349134	2.674567	2.674567
O	9.360984	9.360984	0.924906
O	4.011850	7.098795	4.011850
O	6.274039	9.360984	4.011850
O	4.011850	4.011850	4.011850
O	6.686417	4.424228	1.337283
O	8.948606	6.686417	1.337283
O	6.686417	6.686417	3.599472
O	9.360984	4.011850	1.749661
O	7.098795	4.011850	4.011850
O	9.360984	6.274039	4.011850
O	12.035550	6.686417	1.337283
O	9.773361	1.337283	1.337283
O	12.035550	3.599472	1.337283
O	6.686417	1.337283	4.424228
Zr	5.349134	5.349134	0.000000
Zr	8.023700	8.023700	0.000000
Zr	5.349134	8.023700	2.674567
Zr	8.023700	5.349134	2.674567
Nd	8.023700	0.000000	2.674567
Nd	13.372834	-2.674567	0.000000
Nd	16.047401	0.000000	0.000000
Nd	10.698267	-2.674567	2.674567
O	14.710117	4.011850	0.924906
O	9.360984	1.749661	4.011850
O	11.623173	4.011850	4.011850
O	9.360984	-1.337283	4.011850
O	12.035550	-0.924906	1.337283
O	14.297740	1.337283	1.337283
O	12.035550	1.337283	3.599472
O	14.710117	-1.337283	1.749661
O	12.447928	-1.337283	4.011850
O	14.710117	0.924906	4.011850
O	17.384684	1.337283	1.337283
O	15.122495	-4.011850	1.337283
O	17.384684	-1.749661	1.337283
O	12.035550	-4.011850	4.424228
Zr	10.698267	0.000000	0.000000
Zr	13.372834	2.674567	0.000000
Zr	10.698267	2.674567	2.674567
Zr	13.372834	0.000000	2.674567
Nd	-2.674567	5.349134	8.023700
Nd	2.674567	2.674567	5.349134
Nd	5.349134	5.349134	5.349134
Nd	0.000000	2.674567	8.023700
O	4.011850	9.360984	6.274039
O	-1.337283	7.098795	9.360984
O	0.924906	9.360984	9.360984
O	-1.337283	4.011850	9.360984
O	1.337283	4.424228	6.686417
O	3.599472	6.686417	6.686417
O	1.337283	6.686417	8.948606
O	4.011850	4.011850	7.098795
O	1.749661	4.011850	9.360984
O	4.011850	6.274039	9.360984
O	6.686417	6.686417	6.686417
O	4.424228	1.337283	6.686417
O	6.686417	3.599472	6.686417
O	1.337283	1.337283	9.773361
Zr	0.000000	5.349134	5.349134
Zr	2.674567	8.023700	5.349134
Zr	0.000000	8.023700	8.023700
Zr	2.674567	5.349134	8.023700
Nd	2.674567	0.000000	8.023700
Nd	8.023700	-2.674567	5.349134
Nd	10.698267	0.000000	5.349134
Nd	5.349134	-2.674567	8.023700
O	9.360984	4.011850	6.274039
O	4.011850	1.749661	9.360984
O	6.274039	4.011850	9.360984
O	4.011850	-1.337283	9.360984
O	6.686417	-0.924906	6.686417
O	8.948606	1.337283	6.686417
O	6.686417	1.337283	8.948606
O	9.360984	-1.337283	7.098795
O	7.098795	-1.337283	9.360984
O	9.360984	0.924906	9.360984
O	12.035550	1.337283	6.686417
O	9.773361	-4.011850	6.686417
O	12.035550	-1.749661	6.686417
O	6.686417	-4.011850	9.773361
Zr	5.349134	0.000000	5.349134
Zr	8.023700	2.674567	5.349134
Zr	5.349134	2.674567	8.023700
Zr	8.023700	0.000000	8.023700
