40

Bi	0.000000	0.000000	0.000000
O	2.226862	2.226862	0.000000
O	2.226862	0.000000	2.226862
O	0.000000	2.226862	2.226862
Pa	2.226862	2.226862	2.226862
Bi	0.000000	0.000000	4.453724
O	2.226862	2.226862	4.453724
O	2.226862	0.000000	6.680587
O	0.000000	2.226862	6.680587
Pa	2.226862	2.226862	6.680587
Bi	0.000000	4.453724	0.000000
O	2.226862	6.680587	0.000000
O	2.226862	4.453724	2.226862
O	0.000000	6.680587	2.226862
Pa	2.226862	6.680587	2.226862
Bi	0.000000	4.453724	4.453724
O	2.226862	6.680587	4.453724
O	2.226862	4.453724	6.680587
O	0.000000	6.680587	6.680587
Pa	2.226862	6.680587	6.680587
Bi	4.453724	0.000000	0.000000
O	6.680587	2.226862	0.000000
O	6.680587	0.000000	2.226862
O	4.453724	2.226862	2.226862
Pa	6.680587	2.226862	2.226862
Bi	4.453724	0.000000	4.453724
O	6.680587	2.226862	4.453724
O	6.680587	0.000000	6.680587
O	4.453724	2.226862	6.680587
Pa	6.680587	2.226862	6.680587
Bi	4.453724	4.453724	0.000000
O	6.680587	6.680587	0.000000
O	6.680587	4.453724	2.226862
O	4.453724	6.680587	2.226862
Pa	6.680587	6.680587	2.226862
Bi	4.453724	4.453724	4.453724
O	6.680587	6.680587	4.453724
O	6.680587	4.453724	6.680587
O	4.453724	6.680587	6.680587
Pa	6.680587	6.680587	6.680587
