40

Fe	0.000000	0.000000	0.000000
Hg	2.077821	2.077821	2.077821
O	0.000000	2.077821	2.077821
O	2.077821	0.000000	2.077821
O	2.077821	2.077821	0.000000
Fe	0.000000	0.000000	4.155641
Hg	2.077821	2.077821	6.233462
O	0.000000	2.077821	6.233462
O	2.077821	0.000000	6.233462
O	2.077821	2.077821	4.155641
Fe	0.000000	4.155641	0.000000
Hg	2.077821	6.233462	2.077821
O	0.000000	6.233462	2.077821
O	2.077821	4.155641	2.077821
O	2.077821	6.233462	0.000000
Fe	0.000000	4.155641	4.155641
Hg	2.077821	6.233462	6.233462
O	0.000000	6.233462	6.233462
O	2.077821	4.155641	6.233462
O	2.077821	6.233462	4.155641
Fe	4.155641	0.000000	0.000000
Hg	6.233462	2.077821	2.077821
O	4.155641	2.077821	2.077821
O	6.233462	0.000000	2.077821
O	6.233462	2.077821	0.000000
Fe	4.155641	0.000000	4.155641
Hg	6.233462	2.077821	6.233462
O	4.155641	2.077821	6.233462
O	6.233462	0.000000	6.233462
O	6.233462	2.077821	4.155641
Fe	4.155641	4.155641	0.000000
Hg	6.233462	6.233462	2.077821
O	4.155641	6.233462	2.077821
O	6.233462	4.155641	2.077821
O	6.233462	6.233462	0.000000
Fe	4.155641	4.155641	4.155641
Hg	6.233462	6.233462	6.233462
O	4.155641	6.233462	6.233462
O	6.233462	4.155641	6.233462
O	6.233462	6.233462	4.155641
