40

Ce	2.281977	2.281977	2.281977
Er	0.000000	0.000000	0.000000
O	2.281977	2.281977	0.000000
O	2.281977	0.000000	2.281977
O	0.000000	2.281977	2.281977
Ce	2.281977	2.281977	6.845931
Er	0.000000	0.000000	4.563954
O	2.281977	2.281977	4.563954
O	2.281977	0.000000	6.845931
O	0.000000	2.281977	6.845931
Ce	2.281977	6.845931	2.281977
Er	0.000000	4.563954	0.000000
O	2.281977	6.845931	0.000000
O	2.281977	4.563954	2.281977
O	0.000000	6.845931	2.281977
Ce	2.281977	6.845931	6.845931
Er	0.000000	4.563954	4.563954
O	2.281977	6.845931	4.563954
O	2.281977	4.563954	6.845931
O	0.000000	6.845931	6.845931
Ce	6.845931	2.281977	2.281977
Er	4.563954	0.000000	0.000000
O	6.845931	2.281977	0.000000
O	6.845931	0.000000	2.281977
O	4.563954	2.281977	2.281977
Ce	6.845931	2.281977	6.845931
Er	4.563954	0.000000	4.563954
O	6.845931	2.281977	4.563954
O	6.845931	0.000000	6.845931
O	4.563954	2.281977	6.845931
Ce	6.845931	6.845931	2.281977
Er	4.563954	4.563954	0.000000
O	6.845931	6.845931	0.000000
O	6.845931	4.563954	2.281977
O	4.563954	6.845931	2.281977
Ce	6.845931	6.845931	6.845931
Er	4.563954	4.563954	4.563954
O	6.845931	6.845931	4.563954
O	6.845931	4.563954	6.845931
O	4.563954	6.845931	6.845931
