176

O	5.371461	3.798196	9.303643
O	3.222877	2.278918	5.582186
O	4.140681	5.538782	11.435417
O	1.992097	4.019504	7.713959
O	6.602241	2.057611	11.435417
O	7.833021	5.538782	9.303643
O	2.909901	2.057611	9.303643
O	4.140681	5.538782	7.171870
O	6.602241	2.057611	7.171870
O	5.684436	4.019504	5.582186
O	0.761317	0.538332	5.582186
O	4.453656	0.538332	3.450413
O	4.453656	0.538332	7.713959
O	1.992097	4.019504	3.450413
Sn	1.074292	3.038557	1.860729
Sn	3.222877	0.000000	1.860729
Sn	0.000000	0.000000	3.721457
Sn	0.000000	0.000000	0.000000
Tb	3.222877	0.000000	5.582186
Tb	1.074292	3.038557	5.582186
Tb	4.297169	3.038557	3.721457
Tb	4.297169	3.038557	7.442915
O	5.371461	3.798196	16.746558
O	3.222877	2.278918	13.025101
O	4.140681	5.538782	18.878331
O	1.992097	4.019504	15.156874
O	6.602241	2.057611	18.878331
O	7.833021	5.538782	16.746558
O	2.909901	2.057611	16.746558
O	4.140681	5.538782	14.614784
O	6.602241	2.057611	14.614784
O	5.684436	4.019504	13.025101
O	0.761317	0.538332	13.025100
O	4.453656	0.538332	10.893327
O	4.453656	0.538332	15.156874
O	1.992097	4.019504	10.893327
Sn	1.074292	3.038557	9.303643
Sn	3.222877	0.000000	9.303643
Sn	0.000000	0.000000	11.164372
Sn	0.000000	0.000000	7.442915
Tb	3.222877	0.000000	13.025101
Tb	1.074292	3.038557	13.025101
Tb	4.297169	3.038557	11.164372
Tb	4.297169	3.038557	14.885829
O	7.520045	9.875311	13.025101
O	5.371461	8.356032	9.303643
O	6.289265	11.615896	15.156874
O	4.140681	10.096618	11.435417
O	8.750825	8.134725	15.156874
O	9.981605	11.615896	13.025101
O	5.058485	8.134725	13.025101
O	6.289265	11.615896	10.893327
O	8.750825	8.134725	10.893327
O	7.833021	10.096618	9.303643
O	2.909901	6.615446	9.303643
O	6.602241	6.615446	7.171870
O	6.602241	6.615446	11.435417
O	4.140681	10.096618	7.171870
Sn	3.222877	9.115671	5.582186
Sn	5.371461	6.077114	5.582186
Sn	2.148584	6.077114	7.442915
Sn	2.148584	6.077114	3.721457
Tb	5.371461	6.077114	9.303643
Tb	3.222877	9.115671	9.303643
Tb	6.445753	9.115671	7.442915
Tb	6.445753	9.115671	11.164372
O	7.520045	9.875311	20.468015
O	5.371461	8.356032	16.746558
O	6.289265	11.615896	22.599788
O	4.140681	10.096618	18.878331
O	8.750825	8.134725	22.599788
O	9.981605	11.615896	20.468015
O	5.058485	8.134725	20.468015
O	6.289265	11.615896	18.336242
O	8.750825	8.134725	18.336242
O	7.833021	10.096618	16.746558
O	2.909901	6.615446	16.746558
O	6.602241	6.615446	14.614784
O	6.602241	6.615446	18.878331
O	4.140681	10.096618	14.614784
Sn	3.222877	9.115671	13.025101
Sn	5.371461	6.077114	13.025101
Sn	2.148584	6.077114	14.885829
Sn	2.148584	6.077114	11.164372
Tb	5.371461	6.077114	16.746558
Tb	3.222877	9.115671	16.746558
Tb	6.445753	9.115671	14.885829
Tb	6.445753	9.115671	18.607286
O	11.817214	3.798196	13.025101
O	9.668630	2.278918	9.303643
O	10.586434	5.538782	15.156874
O	8.437850	4.019504	11.435417
O	13.047994	2.057611	15.156874
O	14.278774	5.538782	13.025101
O	9.355654	2.057611	13.025101
O	10.586434	5.538782	10.893327
O	13.047994	2.057611	10.893327
O	12.130190	4.019504	9.303643
O	7.207070	0.538332	9.303643
O	10.899410	0.538332	7.171870
O	10.899410	0.538332	11.435417
O	8.437850	4.019504	7.171870
Sn	7.520045	3.038557	5.582186
Sn	9.668630	0.000000	5.582186
Sn	6.445753	0.000000	7.442915
Sn	6.445753	0.000000	3.721457
Tb	9.668630	0.000000	9.303643
Tb	7.520045	3.038557	9.303643
Tb	10.742922	3.038557	7.442915
Tb	10.742922	3.038557	11.164372
O	11.817214	3.798196	20.468015
O	9.668630	2.278918	16.746558
O	10.586434	5.538782	22.599788
O	8.437850	4.019504	18.878331
O	13.047994	2.057611	22.599788
O	14.278774	5.538782	20.468015
O	9.355654	2.057611	20.468015
O	10.586434	5.538782	18.336242
O	13.047994	2.057611	18.336242
O	12.130190	4.019504	16.746558
O	7.207070	0.538332	16.746558
O	10.899410	0.538332	14.614784
O	10.899410	0.538332	18.878331
O	8.437850	4.019504	14.614784
Sn	7.520045	3.038557	13.025101
Sn	9.668630	0.000000	13.025101
Sn	6.445753	0.000000	14.885829
Sn	6.445753	0.000000	11.164372
Tb	9.668630	0.000000	16.746558
Tb	7.520045	3.038557	16.746558
Tb	10.742922	3.038557	14.885829
Tb	10.742922	3.038557	18.607286
O	13.965798	9.875311	16.746558
O	11.817214	8.356032	13.025101
O	12.735018	11.615896	18.878331
O	10.586434	10.096618	15.156874
O	15.196578	8.134725	18.878331
O	16.427358	11.615896	16.746558
O	11.504239	8.134725	16.746558
O	12.735018	11.615896	14.614784
O	15.196578	8.134725	14.614784
O	14.278774	10.096618	13.025101
O	9.355654	6.615446	13.025101
O	13.047994	6.615446	10.893327
O	13.047994	6.615446	15.156874
O	10.586434	10.096618	10.893327
Sn	9.668630	9.115671	9.303643
Sn	11.817214	6.077114	9.303643
Sn	8.594337	6.077114	11.164372
Sn	8.594337	6.077114	7.442915
Tb	11.817214	6.077114	13.025101
Tb	9.668630	9.115671	13.025101
Tb	12.891506	9.115671	11.164372
Tb	12.891506	9.115671	14.885829
O	13.965798	9.875311	24.189472
O	11.817214	8.356032	20.468015
O	12.735018	11.615896	26.321246
O	10.586434	10.096618	22.599788
O	15.196578	8.134725	26.321246
O	16.427358	11.615896	24.189472
O	11.504239	8.134725	24.189472
O	12.735018	11.615896	22.057699
O	15.196578	8.134725	22.057699
O	14.278774	10.096618	20.468015
O	9.355654	6.615446	20.468015
O	13.047994	6.615446	18.336242
O	13.047994	6.615446	22.599788
O	10.586434	10.096618	18.336242
Sn	9.668630	9.115671	16.746558
Sn	11.817214	6.077114	16.746558
Sn	8.594337	6.077114	18.607286
Sn	8.594337	6.077114	14.885829
Tb	11.817214	6.077114	20.468015
Tb	9.668630	9.115671	20.468015
Tb	12.891506	9.115671	18.607286
Tb	12.891506	9.115671	22.328744
