40

N	0.000000	0.000000	0.000000
O	0.000000	1.942711	1.942711
O	1.942711	0.000000	1.942711
O	1.942711	1.942711	0.000000
W	1.942711	1.942711	1.942711
N	0.000000	0.000000	3.885423
O	0.000000	1.942711	5.828134
O	1.942711	0.000000	5.828134
O	1.942711	1.942711	3.885423
W	1.942711	1.942711	5.828134
N	0.000000	3.885423	0.000000
O	0.000000	5.828134	1.942711
O	1.942711	3.885423	1.942711
O	1.942711	5.828134	0.000000
W	1.942711	5.828134	1.942711
N	0.000000	3.885423	3.885423
O	0.000000	5.828134	5.828134
O	1.942711	3.885423	5.828134
O	1.942711	5.828134	3.885423
W	1.942711	5.828134	5.828134
N	3.885423	0.000000	0.000000
O	3.885423	1.942711	1.942711
O	5.828134	0.000000	1.942711
O	5.828134	1.942711	0.000000
W	5.828134	1.942711	1.942711
N	3.885423	0.000000	3.885423
O	3.885423	1.942711	5.828134
O	5.828134	0.000000	5.828134
O	5.828134	1.942711	3.885423
W	5.828134	1.942711	5.828134
N	3.885423	3.885423	0.000000
O	3.885423	5.828134	1.942711
O	5.828134	3.885423	1.942711
O	5.828134	5.828134	0.000000
W	5.828134	5.828134	1.942711
N	3.885423	3.885423	3.885423
O	3.885423	5.828134	5.828134
O	5.828134	3.885423	5.828134
O	5.828134	5.828134	3.885423
W	5.828134	5.828134	5.828134
