40

C	1.709278	1.709278	1.709278
O	0.000000	1.709278	1.709278
O	1.709278	0.000000	1.709278
O	1.709278	1.709278	0.000000
P	0.000000	0.000000	0.000000
C	1.709278	1.709278	5.127833
O	0.000000	1.709278	5.127833
O	1.709278	0.000000	5.127833
O	1.709278	1.709278	3.418555
P	0.000000	0.000000	3.418555
C	1.709278	5.127833	1.709278
O	0.000000	5.127833	1.709278
O	1.709278	3.418555	1.709278
O	1.709278	5.127833	0.000000
P	0.000000	3.418555	0.000000
C	1.709278	5.127833	5.127833
O	0.000000	5.127833	5.127833
O	1.709278	3.418555	5.127833
O	1.709278	5.127833	3.418555
P	0.000000	3.418555	3.418555
C	5.127833	1.709278	1.709278
O	3.418555	1.709278	1.709278
O	5.127833	0.000000	1.709278
O	5.127833	1.709278	0.000000
P	3.418555	0.000000	0.000000
C	5.127833	1.709278	5.127833
O	3.418555	1.709278	5.127833
O	5.127833	0.000000	5.127833
O	5.127833	1.709278	3.418555
P	3.418555	0.000000	3.418555
C	5.127833	5.127833	1.709278
O	3.418555	5.127833	1.709278
O	5.127833	3.418555	1.709278
O	5.127833	5.127833	0.000000
P	3.418555	3.418555	0.000000
C	5.127833	5.127833	5.127833
O	3.418555	5.127833	5.127833
O	5.127833	3.418555	5.127833
O	5.127833	5.127833	3.418555
P	3.418555	3.418555	3.418555
