40

O	2.000554	2.000554	0.000000
O	0.000000	2.000554	2.000554
O	2.000554	0.000000	2.000554
Tl	0.000000	0.000000	0.000000
W	2.000554	2.000554	2.000554
O	2.000554	2.000554	4.001107
O	0.000000	2.000554	6.001661
O	2.000554	0.000000	6.001661
Tl	0.000000	0.000000	4.001107
W	2.000554	2.000554	6.001661
O	2.000554	6.001661	0.000000
O	0.000000	6.001661	2.000554
O	2.000554	4.001107	2.000554
Tl	0.000000	4.001107	0.000000
W	2.000554	6.001661	2.000554
O	2.000554	6.001661	4.001107
O	0.000000	6.001661	6.001661
O	2.000554	4.001107	6.001661
Tl	0.000000	4.001107	4.001107
W	2.000554	6.001661	6.001661
O	6.001661	2.000554	0.000000
O	4.001107	2.000554	2.000554
O	6.001661	0.000000	2.000554
Tl	4.001107	0.000000	0.000000
W	6.001661	2.000554	2.000554
O	6.001661	2.000554	4.001107
O	4.001107	2.000554	6.001661
O	6.001661	0.000000	6.001661
Tl	4.001107	0.000000	4.001107
W	6.001661	2.000554	6.001661
O	6.001661	6.001661	0.000000
O	4.001107	6.001661	2.000554
O	6.001661	4.001107	2.000554
Tl	4.001107	4.001107	0.000000
W	6.001661	6.001661	2.000554
O	6.001661	6.001661	4.001107
O	4.001107	6.001661	6.001661
O	6.001661	4.001107	6.001661
Tl	4.001107	4.001107	4.001107
W	6.001661	6.001661	6.001661
