40

O	2.090778	2.090778	0.000000
O	0.000000	2.090778	2.090778
O	2.090778	0.000000	2.090778
Tl	2.090778	2.090778	2.090778
W	0.000000	0.000000	0.000000
O	2.090778	2.090778	4.181555
O	0.000000	2.090778	6.272333
O	2.090778	0.000000	6.272333
Tl	2.090778	2.090778	6.272333
W	0.000000	0.000000	4.181555
O	2.090778	6.272333	0.000000
O	0.000000	6.272333	2.090778
O	2.090778	4.181555	2.090778
Tl	2.090778	6.272333	2.090778
W	0.000000	4.181555	0.000000
O	2.090778	6.272333	4.181555
O	0.000000	6.272333	6.272333
O	2.090778	4.181555	6.272333
Tl	2.090778	6.272333	6.272333
W	0.000000	4.181555	4.181555
O	6.272333	2.090778	0.000000
O	4.181555	2.090778	2.090778
O	6.272333	0.000000	2.090778
Tl	6.272333	2.090778	2.090778
W	4.181555	0.000000	0.000000
O	6.272333	2.090778	4.181555
O	4.181555	2.090778	6.272333
O	6.272333	0.000000	6.272333
Tl	6.272333	2.090778	6.272333
W	4.181555	0.000000	4.181555
O	6.272333	6.272333	0.000000
O	4.181555	6.272333	2.090778
O	6.272333	4.181555	2.090778
Tl	6.272333	6.272333	2.090778
W	4.181555	4.181555	0.000000
O	6.272333	6.272333	4.181555
O	4.181555	6.272333	6.272333
O	6.272333	4.181555	6.272333
Tl	6.272333	6.272333	6.272333
W	4.181555	4.181555	4.181555
