40

Li	1.795729	1.795729	1.795729
O	0.000000	1.795729	1.795729
O	1.795729	0.000000	1.795729
O	1.795729	1.795729	0.000000
P	0.000000	0.000000	0.000000
Li	1.795729	1.795729	5.387188
O	0.000000	1.795729	5.387188
O	1.795729	0.000000	5.387188
O	1.795729	1.795729	3.591459
P	0.000000	0.000000	3.591459
Li	1.795729	5.387188	1.795729
O	0.000000	5.387188	1.795729
O	1.795729	3.591459	1.795729
O	1.795729	5.387188	0.000000
P	0.000000	3.591459	0.000000
Li	1.795729	5.387188	5.387188
O	0.000000	5.387188	5.387188
O	1.795729	3.591459	5.387188
O	1.795729	5.387188	3.591459
P	0.000000	3.591459	3.591459
Li	5.387188	1.795729	1.795729
O	3.591459	1.795729	1.795729
O	5.387188	0.000000	1.795729
O	5.387188	1.795729	0.000000
P	3.591459	0.000000	0.000000
Li	5.387188	1.795729	5.387188
O	3.591459	1.795729	5.387188
O	5.387188	0.000000	5.387188
O	5.387188	1.795729	3.591459
P	3.591459	0.000000	3.591459
Li	5.387188	5.387188	1.795729
O	3.591459	5.387188	1.795729
O	5.387188	3.591459	1.795729
O	5.387188	5.387188	0.000000
P	3.591459	3.591459	0.000000
Li	5.387188	5.387188	5.387188
O	3.591459	5.387188	5.387188
O	5.387188	3.591459	5.387188
O	5.387188	5.387188	3.591459
P	3.591459	3.591459	3.591459
