40

Lu	0.000000	0.000000	0.000000
O	2.128925	2.128925	0.000000
O	0.000000	2.128925	2.128925
O	2.128925	0.000000	2.128925
Pb	2.128925	2.128925	2.128925
Lu	0.000000	0.000000	4.257842
O	2.128925	2.128925	4.257842
O	0.000000	2.128925	6.386767
O	2.128925	0.000000	6.386767
Pb	2.128925	2.128925	6.386767
Lu	0.000000	4.257842	0.000000
O	2.128925	6.386767	0.000000
O	0.000000	6.386767	2.128925
O	2.128925	4.257842	2.128925
Pb	2.128925	6.386767	2.128925
Lu	0.000000	4.257842	4.257842
O	2.128925	6.386767	4.257842
O	0.000000	6.386767	6.386767
O	2.128925	4.257842	6.386767
Pb	2.128925	6.386767	6.386767
Lu	4.257842	0.000000	0.000000
O	6.386767	2.128925	0.000000
O	4.257842	2.128925	2.128925
O	6.386767	0.000000	2.128925
Pb	6.386767	2.128925	2.128925
Lu	4.257842	0.000000	4.257842
O	6.386767	2.128925	4.257842
O	4.257842	2.128925	6.386767
O	6.386767	0.000000	6.386767
Pb	6.386767	2.128925	6.386767
Lu	4.257842	4.257842	0.000000
O	6.386767	6.386767	0.000000
O	4.257842	6.386767	2.128925
O	6.386767	4.257842	2.128925
Pb	6.386767	6.386767	2.128925
Lu	4.257842	4.257842	4.257842
O	6.386767	6.386767	4.257842
O	4.257842	6.386767	6.386767
O	6.386767	4.257842	6.386767
Pb	6.386767	6.386767	6.386767
