40

Ge	0.000000	0.000000	0.000000
K	2.270021	2.270021	2.270021
O	0.000000	2.270021	2.270021
O	2.270021	0.000000	2.270021
O	2.270021	2.270021	0.000000
Ge	0.000000	0.000000	4.540042
K	2.270021	2.270021	6.810064
O	0.000000	2.270021	6.810064
O	2.270021	0.000000	6.810064
O	2.270021	2.270021	4.540042
Ge	0.000000	4.540042	0.000000
K	2.270021	6.810064	2.270021
O	0.000000	6.810064	2.270021
O	2.270021	4.540042	2.270021
O	2.270021	6.810064	0.000000
Ge	0.000000	4.540042	4.540042
K	2.270021	6.810064	6.810064
O	0.000000	6.810064	6.810064
O	2.270021	4.540042	6.810064
O	2.270021	6.810064	4.540042
Ge	4.540042	0.000000	0.000000
K	6.810064	2.270021	2.270021
O	4.540042	2.270021	2.270021
O	6.810064	0.000000	2.270021
O	6.810064	2.270021	0.000000
Ge	4.540042	0.000000	4.540042
K	6.810064	2.270021	6.810064
O	4.540042	2.270021	6.810064
O	6.810064	0.000000	6.810064
O	6.810064	2.270021	4.540042
Ge	4.540042	4.540042	0.000000
K	6.810064	6.810064	2.270021
O	4.540042	6.810064	2.270021
O	6.810064	4.540042	2.270021
O	6.810064	6.810064	0.000000
Ge	4.540042	4.540042	4.540042
K	6.810064	6.810064	6.810064
O	4.540042	6.810064	6.810064
O	6.810064	4.540042	6.810064
O	6.810064	6.810064	4.540042
