40

Al	1.980050	1.980050	1.980050
Ba	0.000000	0.000000	0.000000
O	0.000000	1.980050	1.980050
O	1.980050	0.000000	1.980050
O	1.980050	1.980050	0.000000
Al	1.980050	1.980050	5.940151
Ba	0.000000	0.000000	3.960100
O	0.000000	1.980050	5.940151
O	1.980050	0.000000	5.940151
O	1.980050	1.980050	3.960100
Al	1.980050	5.940151	1.980050
Ba	0.000000	3.960100	0.000000
O	0.000000	5.940151	1.980050
O	1.980050	3.960100	1.980050
O	1.980050	5.940151	0.000000
Al	1.980050	5.940151	5.940151
Ba	0.000000	3.960100	3.960100
O	0.000000	5.940151	5.940151
O	1.980050	3.960100	5.940151
O	1.980050	5.940151	3.960100
Al	5.940151	1.980050	1.980050
Ba	3.960100	0.000000	0.000000
O	3.960100	1.980050	1.980050
O	5.940151	0.000000	1.980050
O	5.940151	1.980050	0.000000
Al	5.940151	1.980050	5.940151
Ba	3.960100	0.000000	3.960100
O	3.960100	1.980050	5.940151
O	5.940151	0.000000	5.940151
O	5.940151	1.980050	3.960100
Al	5.940151	5.940151	1.980050
Ba	3.960100	3.960100	0.000000
O	3.960100	5.940151	1.980050
O	5.940151	3.960100	1.980050
O	5.940151	5.940151	0.000000
Al	5.940151	5.940151	5.940151
Ba	3.960100	3.960100	3.960100
O	3.960100	5.940151	5.940151
O	5.940151	3.960100	5.940151
O	5.940151	5.940151	3.960100
