40

Al	0.000000	0.000000	0.000000
Ba	2.332015	2.332015	2.332015
O	0.000000	2.332015	2.332015
O	2.332015	0.000000	2.332015
O	2.332015	2.332015	0.000000
Al	0.000000	0.000000	4.664030
Ba	2.332015	2.332015	6.996044
O	0.000000	2.332015	6.996044
O	2.332015	0.000000	6.996044
O	2.332015	2.332015	4.664030
Al	0.000000	4.664030	0.000000
Ba	2.332015	6.996044	2.332015
O	0.000000	6.996044	2.332015
O	2.332015	4.664030	2.332015
O	2.332015	6.996044	0.000000
Al	0.000000	4.664030	4.664030
Ba	2.332015	6.996044	6.996044
O	0.000000	6.996044	6.996044
O	2.332015	4.664030	6.996044
O	2.332015	6.996044	4.664030
Al	4.664030	0.000000	0.000000
Ba	6.996044	2.332015	2.332015
O	4.664030	2.332015	2.332015
O	6.996044	0.000000	2.332015
O	6.996044	2.332015	0.000000
Al	4.664030	0.000000	4.664030
Ba	6.996044	2.332015	6.996044
O	4.664030	2.332015	6.996044
O	6.996044	0.000000	6.996044
O	6.996044	2.332015	4.664030
Al	4.664030	4.664030	0.000000
Ba	6.996044	6.996044	2.332015
O	4.664030	6.996044	2.332015
O	6.996044	4.664030	2.332015
O	6.996044	6.996044	0.000000
Al	4.664030	4.664030	4.664030
Ba	6.996044	6.996044	6.996044
O	4.664030	6.996044	6.996044
O	6.996044	4.664030	6.996044
O	6.996044	6.996044	4.664030
