112

Be	0.000000	0.000000	0.000000
Be	2.018546	-2.018845	-2.018845
O	2.995090	-1.041938	-1.041938
O	-1.042001	1.041938	-2.995753
O	1.042001	-1.041938	-2.995753
O	0.976544	0.976907	-0.976907
O	5.079093	1.041938	-1.041938
O	0.976544	3.060783	-3.060783
O	3.060547	3.060783	-0.976907
O	3.060547	0.976907	-3.060783
Zn	-1.009273	-1.009423	-3.028268
Zn	3.027819	1.009423	-1.009423
Zn	5.046364	-1.009423	-1.009423
Zn	1.009273	1.009423	-3.028268
Be	4.037091	4.037691	0.000000
Be	6.055637	2.018845	-2.018845
O	7.032182	2.995753	-1.041938
O	2.995090	5.079628	-2.995753
O	5.079093	2.995753	-2.995753
O	5.013636	5.014598	-0.976907
O	9.116184	5.079628	-1.041938
O	5.013636	7.098474	-3.060783
O	7.097638	7.098474	-0.976907
O	7.097638	5.014598	-3.060783
Zn	3.027819	3.028268	-3.028268
Zn	7.064910	5.047113	-1.009423
Zn	9.083456	3.028268	-1.009423
Zn	5.046364	5.047113	-3.028268
Be	-4.037091	0.000000	-4.037691
Be	-2.018546	-2.018845	-6.056536
O	-1.042001	-1.041938	-5.079628
O	-5.079093	1.041938	-7.033443
O	-2.995090	-1.041938	-7.033443
O	-3.060547	0.976907	-5.014598
O	1.042001	1.041938	-5.079628
O	-3.060547	3.060783	-7.098474
O	-0.976544	3.060783	-5.014598
O	-0.976544	0.976907	-7.098474
Zn	-5.046364	-1.009423	-7.065958
Zn	-1.009273	1.009423	-5.047113
Zn	1.009273	-1.009423	-5.047113
Zn	-3.027819	1.009423	-7.065958
Be	0.000000	4.037691	-4.037691
Be	2.018546	2.018845	-6.056536
O	2.995090	2.995753	-5.079628
O	-1.042001	5.079628	-7.033443
O	1.042001	2.995753	-7.033443
O	0.976544	5.014598	-5.014598
O	5.079093	5.079628	-5.079628
O	0.976544	7.098474	-7.098474
O	3.060547	7.098474	-5.014598
O	3.060547	5.014598	-7.098474
Zn	-1.009273	3.028268	-7.065958
Zn	3.027819	5.047113	-5.047113
Zn	5.046364	3.028268	-5.047113
Zn	1.009273	5.047113	-7.065958
Be	4.037091	-4.037691	0.000000
Be	6.055637	-6.056536	-2.018845
O	7.032182	-5.079628	-1.041938
O	2.995090	-2.995753	-2.995753
O	5.079093	-5.079628	-2.995753
O	5.013636	-3.060783	-0.976907
O	9.116184	-2.995753	-1.041938
O	5.013636	-0.976907	-3.060783
O	7.097638	-0.976907	-0.976907
O	7.097638	-3.060783	-3.060783
Zn	3.027819	-5.047113	-3.028268
Zn	7.064910	-3.028268	-1.009423
Zn	9.083456	-5.047113	-1.009423
Zn	5.046364	-3.028268	-3.028268
Be	8.074183	0.000000	0.000000
Be	10.092729	-2.018845	-2.018845
O	11.069273	-1.041938	-1.041938
O	7.032182	1.041938	-2.995753
O	9.116184	-1.041938	-2.995753
O	9.050727	0.976907	-0.976907
O	13.153276	1.041938	-1.041938
O	9.050727	3.060783	-3.060783
O	11.134730	3.060783	-0.976907
O	11.134730	0.976907	-3.060783
Zn	7.064910	-1.009423	-3.028268
Zn	11.102001	1.009423	-1.009423
Zn	13.120547	-1.009423	-1.009423
Zn	9.083456	1.009423	-3.028268
Be	0.000000	-4.037691	-4.037691
Be	2.018546	-6.056536	-6.056536
O	2.995090	-5.079628	-5.079628
O	-1.042001	-2.995753	-7.033443
O	1.042001	-5.079628	-7.033443
O	0.976544	-3.060783	-5.014598
O	5.079093	-2.995753	-5.079628
O	0.976544	-0.976907	-7.098474
O	3.060547	-0.976907	-5.014598
O	3.060547	-3.060783	-7.098474
Zn	-1.009273	-5.047113	-7.065958
Zn	3.027819	-3.028268	-5.047113
Zn	5.046364	-5.047113	-5.047113
Zn	1.009273	-3.028268	-7.065958
Be	4.037091	0.000000	-4.037691
Be	6.055637	-2.018845	-6.056536
O	7.032182	-1.041938	-5.079628
O	2.995090	1.041938	-7.033443
O	5.079093	-1.041938	-7.033443
O	5.013636	0.976907	-5.014598
O	9.116184	1.041938	-5.079628
O	5.013636	3.060783	-7.098474
O	7.097638	3.060783	-5.014598
O	7.097638	0.976907	-7.098474
Zn	3.027819	-1.009423	-7.065958
Zn	7.064910	1.009423	-5.047113
Zn	9.083456	-1.009423	-5.047113
Zn	5.046364	1.009423	-7.065958
