40

Ce	0.000000	0.000000	0.000000
Ge	1.980652	1.980652	1.980652
O	1.980652	1.980652	0.000000
O	1.980652	0.000000	1.980652
O	0.000000	1.980652	1.980652
Ce	0.000000	0.000000	3.961306
Ge	1.980652	1.980652	5.941959
O	1.980652	1.980652	3.961306
O	1.980652	0.000000	5.941959
O	0.000000	1.980652	5.941959
Ce	0.000000	3.961306	0.000000
Ge	1.980652	5.941959	1.980652
O	1.980652	5.941959	0.000000
O	1.980652	3.961306	1.980652
O	0.000000	5.941959	1.980652
Ce	0.000000	3.961306	3.961306
Ge	1.980652	5.941959	5.941959
O	1.980652	5.941959	3.961306
O	1.980652	3.961306	5.941959
O	0.000000	5.941959	5.941959
Ce	3.961306	0.000000	0.000000
Ge	5.941959	1.980652	1.980652
O	5.941959	1.980652	0.000000
O	5.941959	0.000000	1.980652
O	3.961306	1.980652	1.980652
Ce	3.961306	0.000000	3.961306
Ge	5.941959	1.980652	5.941959
O	5.941959	1.980652	3.961306
O	5.941959	0.000000	5.941959
O	3.961306	1.980652	5.941959
Ce	3.961306	3.961306	0.000000
Ge	5.941959	5.941959	1.980652
O	5.941959	5.941959	0.000000
O	5.941959	3.961306	1.980652
O	3.961306	5.941959	1.980652
Ce	3.961306	3.961306	3.961306
Ge	5.941959	5.941959	5.941959
O	5.941959	5.941959	3.961306
O	5.941959	3.961306	5.941959
O	3.961306	5.941959	5.941959
