112

Ge	0.000000	0.000000	0.000000
Ge	2.333587	-2.334205	-2.334205
Lu	-1.166793	-1.167098	-3.501303
Lu	1.166793	1.167098	-3.501303
Lu	3.500380	1.167098	-1.167098
Lu	5.833957	-1.167098	-1.167098
O	-1.042487	1.042211	-3.626199
O	3.624687	-1.042211	-1.042211
O	1.042487	-1.042211	-3.626199
O	1.291100	1.291994	-1.291994
O	5.709651	1.042211	-1.042211
O	1.291100	3.376417	-3.376417
O	3.376064	3.376417	-1.291994
O	3.376064	1.291994	-3.376417
Ge	4.667168	4.668405	0.000000
Ge	7.000755	2.334200	-2.334205
Lu	3.500375	3.501308	-3.501303
Lu	5.833962	5.835503	-3.501303
Lu	8.167549	5.835503	-1.167098
Lu	10.501126	3.501308	-1.167098
O	3.624681	5.710617	-3.626199
O	8.291855	3.626194	-1.042211
O	5.709656	3.626194	-3.626199
O	5.958268	5.960399	-1.291994
O	10.376820	5.710617	-1.042211
O	5.958268	8.044822	-3.376417
O	8.043233	8.044822	-1.291994
O	8.043233	5.960399	-3.376417
Ge	-4.667168	0.000000	-4.668405
Ge	-2.333582	-2.334205	-7.002611
Lu	-5.833962	-1.167098	-8.169709
Lu	-3.500375	1.167098	-8.169709
Lu	-1.166788	1.167098	-5.835503
Lu	1.166789	-1.167098	-5.835503
O	-5.709656	1.042211	-8.294605
O	-1.042482	-1.042211	-5.710617
O	-3.624681	-1.042211	-8.294605
O	-3.376069	1.291994	-5.960399
O	1.042483	1.042211	-5.710617
O	-3.376069	3.376417	-8.044822
O	-1.291104	3.376417	-5.960399
O	-1.291104	1.291994	-8.044822
Ge	0.000000	4.668405	-4.668405
Ge	2.333587	2.334200	-7.002611
Lu	-1.166793	3.501308	-8.169709
Lu	1.166793	5.835503	-8.169709
Lu	3.500380	5.835503	-5.835503
Lu	5.833957	3.501308	-5.835503
O	-1.042487	5.710617	-8.294605
O	3.624687	3.626194	-5.710617
O	1.042487	3.626194	-8.294605
O	1.291100	5.960399	-5.960399
O	5.709651	5.710617	-5.710617
O	1.291100	8.044822	-8.044822
O	3.376064	8.044822	-5.960399
O	3.376064	5.960399	-8.044822
Ge	4.667168	-4.668405	0.000000
Ge	7.000755	-7.002611	-2.334205
Lu	3.500375	-5.835503	-3.501303
Lu	5.833962	-3.501308	-3.501303
Lu	8.167549	-3.501308	-1.167098
Lu	10.501126	-5.835503	-1.167098
O	3.624681	-3.626194	-3.626199
O	8.291855	-5.710617	-1.042211
O	5.709656	-5.710617	-3.626199
O	5.958268	-3.376412	-1.291994
O	10.376820	-3.626194	-1.042211
O	5.958268	-1.291989	-3.376417
O	8.043233	-1.291989	-1.291994
O	8.043233	-3.376412	-3.376417
Ge	9.334337	0.000000	0.000000
Ge	11.667924	-2.334205	-2.334205
Lu	8.167544	-1.167098	-3.501303
Lu	10.501130	1.167098	-3.501303
Lu	12.834717	1.167098	-1.167098
Lu	15.168294	-1.167098	-1.167098
O	8.291850	1.042211	-3.626199
O	12.959024	-1.042211	-1.042211
O	10.376824	-1.042211	-3.626199
O	10.625437	1.291994	-1.291994
O	15.043988	1.042211	-1.042211
O	10.625437	3.376417	-3.376417
O	12.710401	3.376417	-1.291994
O	12.710401	1.291994	-3.376417
Ge	0.000000	-4.668405	-4.668405
Ge	2.333587	-7.002611	-7.002611
Lu	-1.166793	-5.835503	-8.169709
Lu	1.166793	-3.501308	-8.169709
Lu	3.500380	-3.501308	-5.835503
Lu	5.833957	-5.835503	-5.835503
O	-1.042487	-3.626194	-8.294605
O	3.624687	-5.710617	-5.710617
O	1.042487	-5.710617	-8.294605
O	1.291100	-3.376412	-5.960399
O	5.709651	-3.626194	-5.710617
O	1.291100	-1.291989	-8.044822
O	3.376064	-1.291989	-5.960399
O	3.376064	-3.376412	-8.044822
Ge	4.667168	0.000000	-4.668405
Ge	7.000755	-2.334205	-7.002611
Lu	3.500375	-1.167098	-8.169709
Lu	5.833962	1.167098	-8.169709
Lu	8.167549	1.167098	-5.835503
Lu	10.501126	-1.167098	-5.835503
O	3.624681	1.042211	-8.294605
O	8.291855	-1.042211	-5.710617
O	5.709656	-1.042211	-8.294605
O	5.958268	1.291994	-5.960399
O	10.376820	1.042211	-5.710617
O	5.958268	3.376417	-8.044822
O	8.043233	3.376417	-5.960399
O	8.043233	1.291994	-8.044822
