112

O	3.568420	-0.945390	-0.945390
O	-0.945039	0.945390	-3.562493
O	0.945039	-0.945390	-3.562493
O	1.311691	1.308551	-1.308551
O	5.458498	0.945390	-0.945390
O	1.311691	3.199331	-3.199331
O	3.201768	3.199331	-1.308551
O	3.201768	1.308551	-3.199331
Pu	0.000000	0.000000	0.000000
Pu	2.256730	-2.253941	-2.253941
Rh	-1.128365	-1.126971	-3.380912
Rh	3.385094	1.126971	-1.126971
Rh	5.641824	-1.126971	-1.126971
Rh	1.128365	1.126971	-3.380912
O	8.081880	3.562493	-0.945390
O	3.568420	5.453272	-3.562493
O	5.458498	3.562493	-3.562493
O	5.825150	5.816434	-1.308551
O	9.971957	5.453272	-0.945390
O	5.825150	7.707214	-3.199331
O	7.715228	7.707214	-1.308551
O	7.715228	5.816434	-3.199331
Pu	4.513459	4.507882	0.000000
Pu	6.770189	2.253941	-2.253941
Rh	3.385094	3.380912	-3.380912
Rh	7.898554	5.634853	-1.126971
Rh	10.155283	3.380912	-1.126971
Rh	5.641824	5.634853	-3.380912
O	-0.945039	-0.945390	-5.453272
O	-5.458498	0.945390	-8.070375
O	-3.568420	-0.945390	-8.070375
O	-3.201768	1.308551	-5.816434
O	0.945039	0.945390	-5.453272
O	-3.201768	3.199331	-7.707214
O	-1.311691	3.199331	-5.816434
O	-1.311691	1.308551	-7.707214
Pu	-4.513459	0.000000	-4.507882
Pu	-2.256730	-2.253941	-6.761824
Rh	-5.641824	-1.126971	-7.888794
Rh	-1.128365	1.126971	-5.634853
Rh	1.128365	-1.126971	-5.634853
Rh	-3.385094	1.126971	-7.888794
O	3.568420	3.562493	-5.453272
O	-0.945039	5.453272	-8.070375
O	0.945039	3.562493	-8.070375
O	1.311691	5.816434	-5.816434
O	5.458498	5.453272	-5.453272
O	1.311691	7.707214	-7.707214
O	3.201768	7.707214	-5.816434
O	3.201768	5.816434	-7.707214
Pu	0.000000	4.507882	-4.507882
Pu	2.256730	2.253941	-6.761824
Rh	-1.128365	3.380912	-7.888794
Rh	3.385094	5.634853	-5.634853
Rh	5.641824	3.380912	-5.634853
Rh	1.128365	5.634853	-7.888794
O	8.081880	-5.453272	-0.945390
O	3.568420	-3.562493	-3.562493
O	5.458498	-5.453272	-3.562493
O	5.825150	-3.199331	-1.308551
O	9.971957	-3.562493	-0.945390
O	5.825150	-1.308551	-3.199331
O	7.715228	-1.308551	-1.308551
O	7.715228	-3.199331	-3.199331
Pu	4.513459	-4.507882	0.000000
Pu	6.770189	-6.761824	-2.253941
Rh	3.385094	-5.634853	-3.380912
Rh	7.898554	-3.380912	-1.126971
Rh	10.155283	-5.634853	-1.126971
Rh	5.641824	-3.380912	-3.380912
O	12.595339	-0.945390	-0.945390
O	8.081880	0.945390	-3.562493
O	9.971957	-0.945390	-3.562493
O	10.338609	1.308551	-1.308551
O	14.485417	0.945390	-0.945390
O	10.338609	3.199331	-3.199331
O	12.228687	3.199331	-1.308551
O	12.228687	1.308551	-3.199331
Pu	9.026919	0.000000	0.000000
Pu	11.283648	-2.253941	-2.253941
Rh	7.898554	-1.126971	-3.380912
Rh	12.412013	1.126971	-1.126971
Rh	14.668743	-1.126971	-1.126971
Rh	10.155283	1.126971	-3.380912
O	3.568420	-5.453272	-5.453272
O	-0.945039	-3.562493	-8.070375
O	0.945039	-5.453272	-8.070375
O	1.311691	-3.199331	-5.816434
O	5.458498	-3.562493	-5.453272
O	1.311691	-1.308551	-7.707214
O	3.201768	-1.308551	-5.816434
O	3.201768	-3.199331	-7.707214
Pu	0.000000	-4.507882	-4.507882
Pu	2.256730	-6.761824	-6.761824
Rh	-1.128365	-5.634853	-7.888794
Rh	3.385094	-3.380912	-5.634853
Rh	5.641824	-5.634853	-5.634853
Rh	1.128365	-3.380912	-7.888794
O	8.081880	-0.945390	-5.453272
O	3.568420	0.945390	-8.070375
O	5.458498	-0.945390	-8.070375
O	5.825150	1.308551	-5.816434
O	9.971957	0.945390	-5.453272
O	5.825150	3.199331	-7.707214
O	7.715228	3.199331	-5.816434
O	7.715228	1.308551	-7.707214
Pu	4.513459	0.000000	-4.507882
Pu	6.770189	-2.253941	-6.761824
Rh	3.385094	-1.126971	-7.888794
Rh	7.898554	1.126971	-5.634853
Rh	10.155283	-1.126971	-5.634853
Rh	5.641824	1.126971	-7.888794
