112

O	3.547555	-1.116140	-1.116140
O	-1.116723	1.116140	-3.549310
O	1.116723	-1.116140	-3.549310
O	1.215411	1.216585	-1.216585
O	5.781000	1.116140	-1.116140
O	1.215411	3.448855	-3.448855
O	3.448866	1.216585	-3.448855
O	3.448866	3.448855	-1.216585
Pa	0.000000	0.000000	0.000000
Pa	2.332134	-2.332725	-2.332725
Pd	-1.166072	-1.166357	-3.499083
Pd	3.498206	1.166357	-1.166357
Pd	1.166072	1.166358	-3.499083
Pd	5.830349	-1.166357	-1.166357
O	8.211831	3.549300	-1.116140
O	3.547554	5.781581	-3.549310
O	5.780999	3.549300	-3.549310
O	5.879688	5.882025	-1.216585
O	10.445277	5.781581	-1.116140
O	5.879688	8.114296	-3.448855
O	8.113143	5.882025	-3.448855
O	8.113143	8.114296	-1.216585
Pa	4.664277	4.665440	0.000000
Pa	6.996410	2.332715	-2.332725
Pd	3.498205	3.499083	-3.499083
Pd	8.162482	5.831798	-1.166357
Pd	5.830349	5.831798	-3.499083
Pd	10.494626	3.499083	-1.166357
O	-1.116722	-1.116140	-5.781581
O	-5.780999	1.116140	-8.214750
O	-3.547554	-1.116140	-8.214750
O	-3.448866	1.216585	-5.882025
O	1.116723	1.116140	-5.781581
O	-3.448866	3.448855	-8.114296
O	-1.215410	1.216585	-8.114296
O	-1.215410	3.448855	-5.882025
Pa	-4.664277	0.000000	-4.665440
Pa	-2.332143	-2.332725	-6.998166
Pd	-5.830349	-1.166357	-8.164523
Pd	-1.166071	1.166357	-5.831798
Pd	-3.498205	1.166358	-8.164523
Pd	1.166072	-1.166357	-5.831798
O	3.547555	3.549300	-5.781581
O	-1.116723	5.781581	-8.214750
O	1.116723	3.549300	-8.214750
O	1.215411	5.882025	-5.882025
O	5.781000	5.781581	-5.781581
O	1.215411	8.114296	-8.114296
O	3.448866	5.882025	-8.114296
O	3.448866	8.114296	-5.882025
Pa	0.000000	4.665440	-4.665440
Pa	2.332134	2.332715	-6.998166
Pd	-1.166072	3.499083	-8.164523
Pd	3.498206	5.831798	-5.831798
Pd	1.166072	5.831798	-8.164523
Pd	5.830349	3.499083	-5.831798
O	8.211831	-5.781581	-1.116140
O	3.547554	-3.549300	-3.549310
O	5.780999	-5.781581	-3.549310
O	5.879688	-3.448856	-1.216585
O	10.445277	-3.549300	-1.116140
O	5.879688	-1.216585	-3.448855
O	8.113143	-3.448856	-3.448855
O	8.113143	-1.216585	-1.216585
Pa	4.664277	-4.665440	0.000000
Pa	6.996410	-6.998166	-2.332725
Pd	3.498205	-5.831798	-3.499083
Pd	8.162482	-3.499083	-1.166357
Pd	5.830349	-3.499083	-3.499083
Pd	10.494626	-5.831798	-1.166357
O	12.876108	-1.116140	-1.116140
O	8.211831	1.116140	-3.549310
O	10.445276	-1.116140	-3.549310
O	10.543965	1.216585	-1.216585
O	15.109554	1.116140	-1.116140
O	10.543965	3.448855	-3.448855
O	12.777420	1.216585	-3.448855
O	12.777420	3.448855	-1.216585
Pa	9.328554	0.000000	0.000000
Pa	11.660687	-2.332725	-2.332725
Pd	8.162482	-1.166357	-3.499083
Pd	12.826759	1.166357	-1.166357
Pd	10.494625	1.166358	-3.499083
Pd	15.158903	-1.166357	-1.166357
O	3.547555	-5.781581	-5.781581
O	-1.116723	-3.549300	-8.214750
O	1.116723	-5.781581	-8.214750
O	1.215411	-3.448856	-5.882025
O	5.781000	-3.549300	-5.781581
O	1.215411	-1.216585	-8.114296
O	3.448866	-3.448856	-8.114296
O	3.448866	-1.216585	-5.882025
Pa	0.000000	-4.665440	-4.665440
Pa	2.332134	-6.998166	-6.998166
Pd	-1.166072	-5.831798	-8.164523
Pd	3.498206	-3.499083	-5.831798
Pd	1.166072	-3.499083	-8.164523
Pd	5.830349	-5.831798	-5.831798
O	8.211831	-1.116140	-5.781581
O	3.547554	1.116140	-8.214750
O	5.780999	-1.116140	-8.214750
O	5.879688	1.216585	-5.882025
O	10.445277	1.116140	-5.781581
O	5.879688	3.448855	-8.114296
O	8.113143	1.216585	-8.114296
O	8.113143	3.448855	-5.882025
Pa	4.664277	0.000000	-4.665440
Pa	6.996410	-2.332725	-6.998166
Pd	3.498205	-1.166357	-8.164523
Pd	8.162482	1.166357	-5.831798
Pd	5.830349	1.166358	-8.164523
Pd	10.494626	-1.166357	-5.831798
