40

Ga	1.908960	1.908960	1.908960
O	0.000000	1.908960	1.908960
O	1.908960	0.000000	1.908960
O	1.908960	1.908960	0.000000
S	0.000000	0.000000	0.000000
Ga	1.908960	1.908960	5.726879
O	0.000000	1.908960	5.726879
O	1.908960	0.000000	5.726879
O	1.908960	1.908960	3.817920
S	0.000000	0.000000	3.817920
Ga	1.908960	5.726879	1.908960
O	0.000000	5.726879	1.908960
O	1.908960	3.817920	1.908960
O	1.908960	5.726879	0.000000
S	0.000000	3.817920	0.000000
Ga	1.908960	5.726879	5.726879
O	0.000000	5.726879	5.726879
O	1.908960	3.817920	5.726879
O	1.908960	5.726879	3.817920
S	0.000000	3.817920	3.817920
Ga	5.726879	1.908960	1.908960
O	3.817920	1.908960	1.908960
O	5.726879	0.000000	1.908960
O	5.726879	1.908960	0.000000
S	3.817920	0.000000	0.000000
Ga	5.726879	1.908960	5.726879
O	3.817920	1.908960	5.726879
O	5.726879	0.000000	5.726879
O	5.726879	1.908960	3.817920
S	3.817920	0.000000	3.817920
Ga	5.726879	5.726879	1.908960
O	3.817920	5.726879	1.908960
O	5.726879	3.817920	1.908960
O	5.726879	5.726879	0.000000
S	3.817920	3.817920	0.000000
Ga	5.726879	5.726879	5.726879
O	3.817920	5.726879	5.726879
O	5.726879	3.817920	5.726879
O	5.726879	5.726879	3.817920
S	3.817920	3.817920	3.817920
