40

Ga	0.000000	0.000000	0.000000
O	0.000000	1.881423	1.881423
O	1.881423	0.000000	1.881423
O	1.881423	1.881423	0.000000
S	1.881423	1.881423	1.881423
Ga	0.000000	0.000000	3.762846
O	0.000000	1.881423	5.644269
O	1.881423	0.000000	5.644269
O	1.881423	1.881423	3.762846
S	1.881423	1.881423	5.644269
Ga	0.000000	3.762846	0.000000
O	0.000000	5.644269	1.881423
O	1.881423	3.762846	1.881423
O	1.881423	5.644269	0.000000
S	1.881423	5.644269	1.881423
Ga	0.000000	3.762846	3.762846
O	0.000000	5.644269	5.644269
O	1.881423	3.762846	5.644269
O	1.881423	5.644269	3.762846
S	1.881423	5.644269	5.644269
Ga	3.762846	0.000000	0.000000
O	3.762846	1.881423	1.881423
O	5.644269	0.000000	1.881423
O	5.644269	1.881423	0.000000
S	5.644269	1.881423	1.881423
Ga	3.762846	0.000000	3.762846
O	3.762846	1.881423	5.644269
O	5.644269	0.000000	5.644269
O	5.644269	1.881423	3.762846
S	5.644269	1.881423	5.644269
Ga	3.762846	3.762846	0.000000
O	3.762846	5.644269	1.881423
O	5.644269	3.762846	1.881423
O	5.644269	5.644269	0.000000
S	5.644269	5.644269	1.881423
Ga	3.762846	3.762846	3.762846
O	3.762846	5.644269	5.644269
O	5.644269	3.762846	5.644269
O	5.644269	5.644269	3.762846
S	5.644269	5.644269	5.644269
