112

Er	0.000000	0.000000	0.000000
Er	2.197595	-2.198126	-2.198126
Mg	-1.098802	-1.099068	-3.297194
Mg	5.493992	-1.099068	-1.099068
Mg	1.098802	1.099068	-3.297194
Mg	3.296397	1.099068	-1.099068
O	-0.987015	0.986755	-3.409497
O	3.408174	-0.986755	-0.986755
O	0.987015	-0.986755	-3.409497
O	1.210580	1.211371	-1.211371
O	5.382215	0.986755	-0.986755
O	1.210580	3.184891	-3.184891
O	3.184620	3.184891	-1.211371
O	3.184620	1.211371	-3.184891
Er	4.395193	4.396257	0.000000
Er	6.592788	2.198131	-2.198126
Mg	3.296391	3.297189	-3.297194
Mg	9.889185	3.297189	-1.099068
Mg	5.493995	5.495325	-3.297194
Mg	7.691590	5.495325	-1.099068
O	3.408178	5.383012	-3.409497
O	7.803367	3.409501	-0.986755
O	5.382208	3.409501	-3.409497
O	5.605773	5.607627	-1.211371
O	9.777408	5.383012	-0.986755
O	5.605773	7.581148	-3.184891
O	7.579813	7.581148	-1.211371
O	7.579813	5.607627	-3.184891
Er	-4.395193	0.000000	-4.396257
Er	-2.197598	-2.198126	-6.594383
Mg	-5.493995	-1.099068	-7.693450
Mg	1.098799	-1.099068	-5.495325
Mg	-3.296391	1.099068	-7.693450
Mg	-1.098796	1.099068	-5.495325
O	-5.382208	0.986755	-7.805753
O	-0.987019	-0.986755	-5.383012
O	-3.408178	-0.986755	-7.805753
O	-3.184614	1.211371	-5.607627
O	0.987022	0.986755	-5.383012
O	-3.184614	3.184891	-7.581148
O	-1.210573	3.184891	-5.607627
O	-1.210573	1.211371	-7.581148
Er	0.000000	4.396257	-4.396257
Er	2.197595	2.198131	-6.594383
Mg	-1.098802	3.297189	-7.693450
Mg	5.493992	3.297189	-5.495325
Mg	1.098802	5.495325	-7.693450
Mg	3.296397	5.495325	-5.495325
O	-0.987015	5.383012	-7.805753
O	3.408174	3.409501	-5.383012
O	0.987015	3.409501	-7.805753
O	1.210580	5.607627	-5.607627
O	5.382215	5.383012	-5.383012
O	1.210580	7.581148	-7.581148
O	3.184620	7.581148	-5.607627
O	3.184620	5.607627	-7.581148
Er	4.395193	-4.396257	0.000000
Er	6.592788	-6.594383	-2.198126
Mg	3.296391	-5.495325	-3.297194
Mg	9.889185	-5.495325	-1.099068
Mg	5.493995	-3.297189	-3.297194
Mg	7.691590	-3.297189	-1.099068
O	3.408178	-3.409501	-3.409497
O	7.803367	-5.383012	-0.986755
O	5.382208	-5.383012	-3.409497
O	5.605773	-3.184886	-1.211371
O	9.777408	-3.409501	-0.986755
O	5.605773	-1.211366	-3.184891
O	7.579813	-1.211366	-1.211371
O	7.579813	-3.184886	-3.184891
Er	8.790386	0.000000	0.000000
Er	10.987981	-2.198126	-2.198126
Mg	7.691584	-1.099068	-3.297194
Mg	14.284378	-1.099068	-1.099068
Mg	9.889188	1.099068	-3.297194
Mg	12.086783	1.099068	-1.099068
O	7.803371	0.986755	-3.409497
O	12.198560	-0.986755	-0.986755
O	9.777401	-0.986755	-3.409497
O	10.000966	1.211371	-1.211371
O	14.172601	0.986755	-0.986755
O	10.000966	3.184891	-3.184891
O	11.975006	3.184891	-1.211371
O	11.975006	1.211371	-3.184891
Er	0.000000	-4.396257	-4.396257
Er	2.197595	-6.594383	-6.594383
Mg	-1.098802	-5.495325	-7.693450
Mg	5.493992	-5.495325	-5.495325
Mg	1.098802	-3.297189	-7.693450
Mg	3.296397	-3.297189	-5.495325
O	-0.987015	-3.409501	-7.805753
O	3.408174	-5.383012	-5.383012
O	0.987015	-5.383012	-7.805753
O	1.210580	-3.184886	-5.607627
O	5.382215	-3.409501	-5.383012
O	1.210580	-1.211366	-7.581148
O	3.184620	-1.211366	-5.607627
O	3.184620	-3.184886	-7.581148
Er	4.395193	0.000000	-4.396257
Er	6.592788	-2.198126	-6.594383
Mg	3.296391	-1.099068	-7.693450
Mg	9.889185	-1.099068	-5.495325
Mg	5.493995	1.099068	-7.693450
Mg	7.691590	1.099068	-5.495325
O	3.408178	0.986755	-7.805753
O	7.803367	-0.986755	-5.383012
O	5.382208	-0.986755	-7.805753
O	5.605773	1.211371	-5.607627
O	9.777408	0.986755	-5.383012
O	5.605773	3.184891	-7.581148
O	7.579813	3.184891	-5.607627
O	7.579813	1.211371	-7.581148
