48

Cl	0.000000	0.000000	0.000000
K_sv	3.785520	3.785520	3.785520
O	0.845960	0.845960	0.845960
O	2.939560	2.939560	0.845960
O	0.845960	2.939560	2.939560
O	2.939560	0.845960	2.939560
Cl	3.785518	3.785518	0.000000
K_sv	7.571038	7.571038	3.785520
O	4.631478	4.631478	0.845960
O	6.725078	6.725078	0.845960
O	4.631478	6.725078	2.939560
O	6.725078	4.631478	2.939560
Cl	3.785518	0.000000	3.785518
K_sv	7.571038	3.785520	7.571038
O	4.631478	0.845960	4.631478
O	6.725078	2.939560	4.631478
O	4.631478	2.939560	6.725078
O	6.725078	0.845960	6.725078
Cl	7.571037	3.785518	3.785518
K_sv	11.356557	7.571038	7.571038
O	8.416997	4.631478	4.631478
O	10.510597	6.725078	4.631478
O	8.416997	6.725078	6.725078
O	10.510597	4.631478	6.725078
Cl	0.000000	3.785518	3.785518
K_sv	3.785520	7.571038	7.571038
O	0.845960	4.631478	4.631478
O	2.939560	6.725078	4.631478
O	0.845960	6.725078	6.725078
O	2.939560	4.631478	6.725078
Cl	3.785518	7.571037	3.785518
K_sv	7.571038	11.356557	7.571038
O	4.631478	8.416997	4.631478
O	6.725078	10.510597	4.631478
O	4.631478	10.510597	6.725078
O	6.725078	8.416997	6.725078
Cl	3.785518	3.785518	7.571037
K_sv	7.571038	7.571038	11.356557
O	4.631478	4.631478	8.416997
O	6.725078	6.725078	8.416997
O	4.631478	6.725078	10.510597
O	6.725078	4.631478	10.510597
Cl	7.571037	7.571037	7.571037
K_sv	11.356557	11.356557	11.356557
O	8.416997	8.416997	8.416997
O	10.510597	10.510597	8.416997
O	8.416997	10.510597	10.510597
O	10.510597	8.416997	10.510597
