112

In	0.000000	0.000000	0.000000
In	2.604737	-2.602926	-2.602926
O	-0.996900	0.996734	-4.209109
O	4.212575	-0.996734	-0.996734
O	0.996900	-0.996734	-4.209109
O	1.607837	1.606192	-1.606192
O	6.206375	0.996734	-0.996734
O	1.607837	3.599650	-3.599650
O	3.601638	3.599650	-1.606192
O	3.601638	1.606192	-3.599650
Pa	-1.302369	-1.301458	-3.904384
Pa	3.907106	1.301458	-1.301458
Pa	1.302369	1.301458	-3.904384
Pa	6.511843	-1.301458	-1.301458
In	5.209473	5.205844	0.000000
In	7.814211	2.602917	-2.602926
O	4.212573	6.202577	-4.209109
O	9.422048	4.209110	-0.996734
O	6.206374	4.209110	-4.209109
O	6.817311	6.812036	-1.606192
O	11.415848	6.202577	-0.996734
O	6.817311	8.805494	-3.599650
O	8.811111	8.805494	-1.606192
O	8.811111	6.812036	-3.599650
Pa	3.907105	3.904386	-3.904384
Pa	9.116579	6.507302	-1.301458
Pa	6.511842	6.507302	-3.904384
Pa	11.721317	3.904386	-1.301458
In	-5.209473	0.000000	-5.205844
In	-2.604736	-2.602926	-7.808770
O	-6.206374	0.996734	-9.414952
O	-0.996899	-0.996734	-6.202577
O	-4.212573	-0.996734	-9.414952
O	-3.601636	1.606192	-6.812036
O	0.996902	0.996734	-6.202577
O	-3.601636	3.599650	-8.805494
O	-1.607836	3.599650	-6.812036
O	-1.607836	1.606192	-8.805494
Pa	-6.511842	-1.301458	-9.110228
Pa	-1.302367	1.301458	-6.507302
Pa	-3.907105	1.301458	-9.110228
Pa	1.302370	-1.301458	-6.507302
In	0.000000	5.205844	-5.205844
In	2.604737	2.602917	-7.808770
O	-0.996900	6.202577	-9.414952
O	4.212575	4.209110	-6.202577
O	0.996900	4.209110	-9.414952
O	1.607837	6.812036	-6.812036
O	6.206375	6.202577	-6.202577
O	1.607837	8.805494	-8.805494
O	3.601638	8.805494	-6.812036
O	3.601638	6.812036	-8.805494
Pa	-1.302369	3.904386	-9.110228
Pa	3.907106	6.507302	-6.507302
Pa	1.302369	6.507302	-9.110228
Pa	6.511843	3.904386	-6.507302
In	5.209473	-5.205844	0.000000
In	7.814211	-7.808770	-2.602926
O	4.212573	-4.209110	-4.209109
O	9.422048	-6.202577	-0.996734
O	6.206374	-6.202577	-4.209109
O	6.817311	-3.599651	-1.606192
O	11.415848	-4.209110	-0.996734
O	6.817311	-1.606194	-3.599650
O	8.811111	-1.606194	-1.606192
O	8.811111	-3.599651	-3.599650
Pa	3.907105	-6.507302	-3.904384
Pa	9.116579	-3.904386	-1.301458
Pa	6.511842	-3.904386	-3.904384
Pa	11.721317	-6.507302	-1.301458
In	10.418947	0.000000	0.000000
In	13.023684	-2.602926	-2.602926
O	9.422047	0.996734	-4.209109
O	14.631521	-0.996734	-0.996734
O	11.415847	-0.996734	-4.209109
O	12.026784	1.606192	-1.606192
O	16.625322	0.996734	-0.996734
O	12.026784	3.599650	-3.599650
O	14.020584	3.599650	-1.606192
O	14.020584	1.606192	-3.599650
Pa	9.116578	-1.301458	-3.904384
Pa	14.326053	1.301458	-1.301458
Pa	11.721315	1.301458	-3.904384
Pa	16.930790	-1.301458	-1.301458
In	0.000000	-5.205844	-5.205844
In	2.604737	-7.808770	-7.808770
O	-0.996900	-4.209110	-9.414952
O	4.212575	-6.202577	-6.202577
O	0.996900	-6.202577	-9.414952
O	1.607837	-3.599651	-6.812036
O	6.206375	-4.209110	-6.202577
O	1.607837	-1.606194	-8.805494
O	3.601638	-1.606194	-6.812036
O	3.601638	-3.599651	-8.805494
Pa	-1.302369	-6.507302	-9.110228
Pa	3.907106	-3.904386	-6.507302
Pa	1.302369	-3.904386	-9.110228
Pa	6.511843	-6.507302	-6.507302
In	5.209473	0.000000	-5.205844
In	7.814211	-2.602926	-7.808770
O	4.212573	0.996734	-9.414952
O	9.422048	-0.996734	-6.202577
O	6.206374	-0.996734	-9.414952
O	6.817311	1.606192	-6.812036
O	11.415848	0.996734	-6.202577
O	6.817311	3.599650	-8.805494
O	8.811111	3.599650	-6.812036
O	8.811111	1.606192	-8.805494
Pa	3.907105	-1.301458	-9.110228
Pa	9.116579	1.301458	-6.507302
Pa	6.511842	1.301458	-9.110228
Pa	11.721317	-1.301458	-6.507302
