112

Ag	0.000000	0.000000	0.000000
Ag	2.253602	-2.254279	-2.254279
O	3.529832	-0.977108	-0.977108
O	-0.977382	0.977108	-3.531460
O	0.977382	-0.977108	-3.531460
O	1.276230	1.277171	-1.277171
O	5.484587	0.977108	-0.977108
O	1.276230	3.231387	-3.231387
O	3.230984	3.231387	-1.277171
O	3.230984	1.277171	-3.231387
Sc	-1.126806	-1.127144	-3.381424
Sc	5.634010	-1.127145	-1.127144
Sc	3.380408	1.127144	-1.127144
Sc	1.126806	1.127144	-3.381424
Ag	4.507212	4.508565	0.000000
Ag	6.760814	2.254286	-2.254279
O	8.037043	3.531457	-0.977108
O	3.529829	5.485673	-3.531460
O	5.484594	3.531457	-3.531460
O	5.783441	5.785736	-1.277171
O	9.991798	5.485673	-0.977108
O	5.783441	7.739952	-3.231387
O	7.738196	7.739952	-1.277171
O	7.738196	5.785736	-3.231387
Sc	3.380406	3.381420	-3.381424
Sc	10.141222	3.381420	-1.127144
Sc	7.887620	5.635709	-1.127144
Sc	5.634018	5.635709	-3.381424
Ag	-4.507212	0.000000	-4.508565
Ag	-2.253610	-2.254279	-6.762844
O	-0.977380	-0.977108	-5.485673
O	-5.484594	0.977108	-8.040025
O	-3.529829	-0.977108	-8.040025
O	-3.230982	1.277171	-5.785736
O	0.977375	0.977108	-5.485673
O	-3.230982	3.231387	-7.739952
O	-1.276227	3.231387	-5.785736
O	-1.276227	1.277171	-7.739952
Sc	-5.634018	-1.127144	-7.889988
Sc	1.126798	-1.127145	-5.635709
Sc	-1.126804	1.127144	-5.635709
Sc	-3.380406	1.127144	-7.889988
Ag	0.000000	4.508565	-4.508565
Ag	2.253602	2.254286	-6.762844
O	3.529832	3.531457	-5.485673
O	-0.977382	5.485673	-8.040025
O	0.977382	3.531457	-8.040025
O	1.276230	5.785736	-5.785736
O	5.484587	5.485673	-5.485673
O	1.276230	7.739952	-7.739952
O	3.230984	7.739952	-5.785736
O	3.230984	5.785736	-7.739952
Sc	-1.126806	3.381420	-7.889988
Sc	5.634010	3.381420	-5.635709
Sc	3.380408	5.635709	-5.635709
Sc	1.126806	5.635709	-7.889988
Ag	4.507212	-4.508565	0.000000
Ag	6.760814	-6.762844	-2.254279
O	8.037043	-5.485673	-0.977108
O	3.529829	-3.531457	-3.531460
O	5.484594	-5.485673	-3.531460
O	5.783441	-3.231394	-1.277171
O	9.991798	-3.531457	-0.977108
O	5.783441	-1.277178	-3.231387
O	7.738196	-1.277178	-1.277171
O	7.738196	-3.231394	-3.231387
Sc	3.380406	-5.635709	-3.381424
Sc	10.141222	-5.635709	-1.127144
Sc	7.887620	-3.381420	-1.127144
Sc	5.634018	-3.381420	-3.381424
Ag	9.014423	0.000000	0.000000
Ag	11.268026	-2.254279	-2.254279
O	12.544255	-0.977108	-0.977108
O	8.037041	0.977108	-3.531460
O	9.991806	-0.977108	-3.531460
O	10.290653	1.277171	-1.277171
O	14.499010	0.977108	-0.977108
O	10.290653	3.231387	-3.231387
O	12.245408	3.231387	-1.277171
O	12.245408	1.277171	-3.231387
Sc	7.887617	-1.127144	-3.381424
Sc	14.648434	-1.127145	-1.127144
Sc	12.394832	1.127144	-1.127144
Sc	10.141229	1.127144	-3.381424
Ag	0.000000	-4.508565	-4.508565
Ag	2.253602	-6.762844	-6.762844
O	3.529832	-5.485673	-5.485673
O	-0.977382	-3.531457	-8.040025
O	0.977382	-5.485673	-8.040025
O	1.276230	-3.231394	-5.785736
O	5.484587	-3.531457	-5.485673
O	1.276230	-1.277178	-7.739952
O	3.230984	-1.277178	-5.785736
O	3.230984	-3.231394	-7.739952
Sc	-1.126806	-5.635709	-7.889988
Sc	5.634010	-5.635709	-5.635709
Sc	3.380408	-3.381420	-5.635709
Sc	1.126806	-3.381420	-7.889988
Ag	4.507212	0.000000	-4.508565
Ag	6.760814	-2.254279	-6.762844
O	8.037043	-0.977108	-5.485673
O	3.529829	0.977108	-8.040025
O	5.484594	-0.977108	-8.040025
O	5.783441	1.277171	-5.785736
O	9.991798	0.977108	-5.485673
O	5.783441	3.231387	-7.739952
O	7.738196	3.231387	-5.785736
O	7.738196	1.277171	-7.739952
Sc	3.380406	-1.127144	-7.889988
Sc	10.141222	-1.127145	-5.635709
Sc	7.887620	1.127144	-5.635709
Sc	5.634018	1.127144	-7.889988
