40

Ag	0.000000	0.000000	0.000000
Na	2.015116	2.015116	2.015116
O	2.015116	2.015116	0.000000
O	2.015116	0.000000	2.015116
O	0.000000	2.015116	2.015116
Ag	0.000000	0.000000	4.030239
Na	2.015116	2.015116	6.045355
O	2.015116	2.015116	4.030239
O	2.015116	0.000000	6.045355
O	0.000000	2.015116	6.045355
Ag	0.000000	4.030239	0.000000
Na	2.015116	6.045355	2.015116
O	2.015116	6.045355	0.000000
O	2.015116	4.030239	2.015116
O	0.000000	6.045355	2.015116
Ag	0.000000	4.030239	4.030239
Na	2.015116	6.045355	6.045355
O	2.015116	6.045355	4.030239
O	2.015116	4.030239	6.045355
O	0.000000	6.045355	6.045355
Ag	4.030239	0.000000	0.000000
Na	6.045355	2.015116	2.015116
O	6.045355	2.015116	0.000000
O	6.045355	0.000000	2.015116
O	4.030239	2.015116	2.015116
Ag	4.030239	0.000000	4.030239
Na	6.045355	2.015116	6.045355
O	6.045355	2.015116	4.030239
O	6.045355	0.000000	6.045355
O	4.030239	2.015116	6.045355
Ag	4.030239	4.030239	0.000000
Na	6.045355	6.045355	2.015116
O	6.045355	6.045355	0.000000
O	6.045355	4.030239	2.015116
O	4.030239	6.045355	2.015116
Ag	4.030239	4.030239	4.030239
Na	6.045355	6.045355	6.045355
O	6.045355	6.045355	4.030239
O	6.045355	4.030239	6.045355
O	4.030239	6.045355	6.045355
