40

O	1.997330	1.997330	0.000000
O	0.000000	1.997330	1.997330
O	1.997330	0.000000	1.997330
Rb_sv	0.000000	0.000000	0.000000
Ti	1.997330	1.997330	1.997330
O	1.997330	1.997330	3.994657
O	0.000000	1.997330	5.991987
O	1.997330	0.000000	5.991987
Rb_sv	0.000000	0.000000	3.994657
Ti	1.997330	1.997330	5.991987
O	1.997330	5.991987	0.000000
O	0.000000	5.991987	1.997330
O	1.997330	3.994657	1.997330
Rb_sv	0.000000	3.994657	0.000000
Ti	1.997330	5.991987	1.997330
O	1.997330	5.991987	3.994657
O	0.000000	5.991987	5.991987
O	1.997330	3.994657	5.991987
Rb_sv	0.000000	3.994657	3.994657
Ti	1.997330	5.991987	5.991987
O	5.991987	1.997330	0.000000
O	3.994657	1.997330	1.997330
O	5.991987	0.000000	1.997330
Rb_sv	3.994657	0.000000	0.000000
Ti	5.991987	1.997330	1.997330
O	5.991987	1.997330	3.994657
O	3.994657	1.997330	5.991987
O	5.991987	0.000000	5.991987
Rb_sv	3.994657	0.000000	3.994657
Ti	5.991987	1.997330	5.991987
O	5.991987	5.991987	0.000000
O	3.994657	5.991987	1.997330
O	5.991987	3.994657	1.997330
Rb_sv	3.994657	3.994657	0.000000
Ti	5.991987	5.991987	1.997330
O	5.991987	5.991987	3.994657
O	3.994657	5.991987	5.991987
O	5.991987	3.994657	5.991987
Rb_sv	3.994657	3.994657	3.994657
Ti	5.991987	5.991987	5.991987
