440

Na	2.388132	2.436514	2.436514
Na	4.824646	0.000000	4.824646
Na	2.388132	7.212778	7.212778
Na	4.824646	4.824646	0.000000
Na	7.261159	2.436514	7.212778
Na	0.000000	0.000000	0.000000
Na	7.261159	7.212778	2.436514
Tm	1.203082	8.476020	3.621564
Tm	3.624795	1.199851	8.449441
Tm	3.651374	3.621564	6.027728
Tm	1.203082	1.173271	6.027728
Tm	1.203082	3.621564	8.476020
Tm	3.651374	6.027728	3.621564
Tm	3.624795	8.449441	1.199851
Tm	1.203082	6.027728	1.173271
Tm	6.024497	8.449441	8.449441
Tm	8.446210	1.173271	3.621564
Tm	8.446210	3.621564	1.173271
Tm	6.024497	1.199851	1.199851
Tm	5.997917	3.621564	3.621564
Tm	8.446210	6.027728	8.476020
Tm	8.446210	8.476020	6.027728
Tm	5.997917	6.027728	6.027728
O	3.793398	1.031248	1.031248
O	5.858853	3.796644	5.852648
O	5.855894	1.031248	8.618043
O	3.790438	3.796644	3.796644
O	3.438316	1.386330	6.205515
O	1.380869	8.262962	1.386330
O	1.380869	1.386330	8.262962
O	3.438316	8.262962	3.443777
O	3.790438	5.852648	5.852648
O	5.855894	8.618043	1.031248
O	5.858853	5.852648	3.796644
O	3.793398	8.618043	8.618043
O	3.438316	6.205515	1.386330
O	1.441904	3.382741	6.266550
O	1.441904	6.266550	3.382741
O	3.438316	3.443777	8.262962
O	8.621290	1.034208	5.852648
O	1.028002	3.796644	1.034208
O	1.028002	1.034208	3.796644
O	8.621290	3.796644	8.615084
O	8.268423	1.386330	1.386330
O	6.210976	8.262962	6.205515
O	6.210976	1.386330	3.443777
O	8.268423	8.262962	8.262962
O	8.621290	5.852648	1.034208
O	1.028002	8.615084	5.852648
O	1.028002	5.852648	8.615084
O	8.621290	8.615084	3.796644
O	8.207387	6.266550	6.266550
O	6.210976	3.443777	1.386330
O	6.210976	6.205515	8.262962
O	8.207387	3.382741	3.382741
Na	2.388132	2.436514	12.085805
Na	4.824646	0.000000	14.473938
Na	2.388132	7.212778	16.862070
Na	4.824646	4.824646	9.649292
Na	7.261159	2.436514	16.862070
Na	0.000000	0.000000	9.649292
Na	7.261159	7.212778	12.085805
Tm	1.203082	8.476020	13.270856
Tm	3.624795	1.199851	18.098733
Tm	3.651374	3.621564	15.677019
Tm	1.203082	1.173271	15.677019
Tm	1.203082	3.621564	18.125312
Tm	3.651374	6.027728	13.270856
Tm	3.624795	8.449441	10.849143
Tm	1.203082	6.027728	10.822563
Tm	6.024497	8.449441	18.098733
Tm	8.446210	1.173271	13.270856
Tm	8.446210	3.621564	10.822563
Tm	6.024497	1.199851	10.849143
Tm	5.997917	3.621564	13.270856
Tm	8.446210	6.027728	18.125312
Tm	8.446210	8.476020	15.677019
Tm	5.997917	6.027728	15.677019
O	3.793398	1.031248	10.680540
O	5.858853	3.796644	15.501940
O	5.855894	1.031248	18.267335
O	3.790438	3.796644	13.445936
O	3.438316	1.386330	15.854807
O	1.380869	8.262962	11.035622
O	1.380869	1.386330	17.912254
O	3.438316	8.262962	13.093069
O	3.790438	5.852648	15.501940
O	5.855894	8.618043	10.680540
O	5.858853	5.852648	13.445936
O	3.793398	8.618043	18.267335
O	3.438316	6.205515	11.035622
O	1.441904	3.382741	15.915842
O	1.441904	6.266550	13.032033
O	3.438316	3.443777	17.912254
O	8.621290	1.034208	15.501940
O	1.028002	3.796644	10.683499
O	1.028002	1.034208	13.445936
O	8.621290	3.796644	18.264376
O	8.268423	1.386330	11.035622
O	6.210976	8.262962	15.854807
O	6.210976	1.386330	13.093069
O	8.268423	8.262962	17.912254
O	8.621290	5.852648	10.683499
O	1.028002	8.615084	15.501940
O	1.028002	5.852648	18.264376
O	8.621290	8.615084	13.445936
O	8.207387	6.266550	15.915842
O	6.210976	3.443777	11.035622
O	6.210976	6.205515	17.912254
O	8.207387	3.382741	13.032033
Na	2.388132	12.085805	2.436514
Na	4.824646	9.649292	4.824646
Na	2.388132	16.862070	7.212778
Na	4.824646	14.473938	0.000000
Na	7.261159	12.085805	7.212778
Na	0.000000	9.649292	0.000000
Na	7.261159	16.862070	2.436514
Tm	1.203082	18.125312	3.621564
Tm	3.624795	10.849143	8.449441
Tm	3.651374	13.270856	6.027728
Tm	1.203082	10.822563	6.027728
Tm	1.203082	13.270856	8.476020
Tm	3.651374	15.677019	3.621564
Tm	3.624795	18.098733	1.199851
Tm	1.203082	15.677019	1.173271
Tm	6.024497	18.098733	8.449441
Tm	8.446210	10.822563	3.621564
Tm	8.446210	13.270856	1.173271
Tm	6.024497	10.849143	1.199851
Tm	5.997917	13.270856	3.621564
Tm	8.446210	15.677019	8.476020
Tm	8.446210	18.125312	6.027728
Tm	5.997917	15.677019	6.027728
O	3.793398	10.680540	1.031248
O	5.858853	13.445936	5.852648
O	5.855894	10.680540	8.618043
O	3.790438	13.445936	3.796644
O	3.438316	11.035622	6.205515
O	1.380869	17.912254	1.386330
O	1.380869	11.035622	8.262962
O	3.438316	17.912254	3.443777
O	3.790438	15.501940	5.852648
O	5.855894	18.267335	1.031248
O	5.858853	15.501940	3.796644
O	3.793398	18.267335	8.618043
O	3.438316	15.854807	1.386330
O	1.441904	13.032033	6.266550
O	1.441904	15.915842	3.382741
O	3.438316	13.093069	8.262962
O	8.621290	10.683499	5.852648
O	1.028002	13.445936	1.034208
O	1.028002	10.683499	3.796644
O	8.621290	13.445936	8.615084
O	8.268423	11.035622	1.386330
O	6.210976	17.912254	6.205515
O	6.210976	11.035622	3.443777
O	8.268423	17.912254	8.262962
O	8.621290	15.501940	1.034208
O	1.028002	18.264376	5.852648
O	1.028002	15.501940	8.615084
O	8.621290	18.264376	3.796644
O	8.207387	15.915842	6.266550
O	6.210976	13.093069	1.386330
O	6.210976	15.854807	8.262962
O	8.207387	13.032033	3.382741
Na	2.388132	12.085805	12.085805
Na	4.824646	9.649292	14.473938
Na	2.388132	16.862070	16.862070
Na	4.824646	14.473938	9.649292
Na	7.261159	12.085805	16.862070
Na	0.000000	9.649292	9.649292
Na	7.261159	16.862070	12.085805
Tm	1.203082	18.125312	13.270856
Tm	3.624795	10.849143	18.098733
Tm	3.651374	13.270856	15.677019
Tm	1.203082	10.822563	15.677019
Tm	1.203082	13.270856	18.125312
Tm	3.651374	15.677019	13.270856
Tm	3.624795	18.098733	10.849143
Tm	1.203082	15.677019	10.822563
Tm	6.024497	18.098733	18.098733
Tm	8.446210	10.822563	13.270856
Tm	8.446210	13.270856	10.822563
Tm	6.024497	10.849143	10.849143
Tm	5.997917	13.270856	13.270856
Tm	8.446210	15.677019	18.125312
Tm	8.446210	18.125312	15.677019
Tm	5.997917	15.677019	15.677019
O	3.793398	10.680540	10.680540
O	5.858853	13.445936	15.501940
O	5.855894	10.680540	18.267335
O	3.790438	13.445936	13.445936
O	3.438316	11.035622	15.854807
O	1.380869	17.912254	11.035622
O	1.380869	11.035622	17.912254
O	3.438316	17.912254	13.093069
O	3.790438	15.501940	15.501940
O	5.855894	18.267335	10.680540
O	5.858853	15.501940	13.445936
O	3.793398	18.267335	18.267335
O	3.438316	15.854807	11.035622
O	1.441904	13.032033	15.915842
O	1.441904	15.915842	13.032033
O	3.438316	13.093069	17.912254
O	8.621290	10.683499	15.501940
O	1.028002	13.445936	10.683499
O	1.028002	10.683499	13.445936
O	8.621290	13.445936	18.264376
O	8.268423	11.035622	11.035622
O	6.210976	17.912254	15.854807
O	6.210976	11.035622	13.093069
O	8.268423	17.912254	17.912254
O	8.621290	15.501940	10.683499
O	1.028002	18.264376	15.501940
O	1.028002	15.501940	18.264376
O	8.621290	18.264376	13.445936
O	8.207387	15.915842	15.915842
O	6.210976	13.093069	11.035622
O	6.210976	15.854807	17.912254
O	8.207387	13.032033	13.032033
Na	12.037424	2.436514	2.436514
Na	14.473938	0.000000	4.824646
Na	12.037424	7.212778	7.212778
Na	14.473938	4.824646	0.000000
Na	16.910451	2.436514	7.212778
Na	9.649292	0.000000	0.000000
Na	16.910451	7.212778	2.436514
Tm	10.852374	8.476020	3.621564
Tm	13.274087	1.199851	8.449441
Tm	13.300666	3.621564	6.027728
Tm	10.852374	1.173271	6.027728
Tm	10.852374	3.621564	8.476020
Tm	13.300666	6.027728	3.621564
Tm	13.274087	8.449441	1.199851
Tm	10.852374	6.027728	1.173271
Tm	15.673789	8.449441	8.449441
Tm	18.095502	1.173271	3.621564
Tm	18.095502	3.621564	1.173271
Tm	15.673789	1.199851	1.199851
Tm	15.647209	3.621564	3.621564
Tm	18.095502	6.027728	8.476020
Tm	18.095502	8.476020	6.027728
Tm	15.647209	6.027728	6.027728
O	13.442689	1.031248	1.031248
O	15.508145	3.796644	5.852648
O	15.505186	1.031248	8.618043
O	13.439730	3.796644	3.796644
O	13.087608	1.386330	6.205515
O	11.030161	8.262962	1.386330
O	11.030161	1.386330	8.262962
O	13.087608	8.262962	3.443777
O	13.439730	5.852648	5.852648
O	15.505186	8.618043	1.031248
O	15.508145	5.852648	3.796644
O	13.442689	8.618043	8.618043
O	13.087608	6.205515	1.386330
O	11.091196	3.382741	6.266550
O	11.091196	6.266550	3.382741
O	13.087608	3.443777	8.262962
O	18.270582	1.034208	5.852648
O	10.677294	3.796644	1.034208
O	10.677294	1.034208	3.796644
O	18.270582	3.796644	8.615084
O	17.917715	1.386330	1.386330
O	15.860267	8.262962	6.205515
O	15.860267	1.386330	3.443777
O	17.917715	8.262962	8.262962
O	18.270582	5.852648	1.034208
O	10.677294	8.615084	5.852648
O	10.677294	5.852648	8.615084
O	18.270582	8.615084	3.796644
O	17.856679	6.266550	6.266550
O	15.860267	3.443777	1.386330
O	15.860267	6.205515	8.262962
O	17.856679	3.382741	3.382741
Na	12.037424	2.436514	12.085805
Na	14.473938	0.000000	14.473938
Na	12.037424	7.212778	16.862070
Na	14.473938	4.824646	9.649292
Na	16.910451	2.436514	16.862070
Na	9.649292	0.000000	9.649292
Na	16.910451	7.212778	12.085805
Tm	10.852374	8.476020	13.270856
Tm	13.274087	1.199851	18.098733
Tm	13.300666	3.621564	15.677019
Tm	10.852374	1.173271	15.677019
Tm	10.852374	3.621564	18.125312
Tm	13.300666	6.027728	13.270856
Tm	13.274087	8.449441	10.849143
Tm	10.852374	6.027728	10.822563
Tm	15.673789	8.449441	18.098733
Tm	18.095502	1.173271	13.270856
Tm	18.095502	3.621564	10.822563
Tm	15.673789	1.199851	10.849143
Tm	15.647209	3.621564	13.270856
Tm	18.095502	6.027728	18.125312
Tm	18.095502	8.476020	15.677019
Tm	15.647209	6.027728	15.677019
O	13.442689	1.031248	10.680540
O	15.508145	3.796644	15.501940
O	15.505186	1.031248	18.267335
O	13.439730	3.796644	13.445936
O	13.087608	1.386330	15.854807
O	11.030161	8.262962	11.035622
O	11.030161	1.386330	17.912254
O	13.087608	8.262962	13.093069
O	13.439730	5.852648	15.501940
O	15.505186	8.618043	10.680540
O	15.508145	5.852648	13.445936
O	13.442689	8.618043	18.267335
O	13.087608	6.205515	11.035622
O	11.091196	3.382741	15.915842
O	11.091196	6.266550	13.032033
O	13.087608	3.443777	17.912254
O	18.270582	1.034208	15.501940
O	10.677294	3.796644	10.683499
O	10.677294	1.034208	13.445936
O	18.270582	3.796644	18.264376
O	17.917715	1.386330	11.035622
O	15.860267	8.262962	15.854807
O	15.860267	1.386330	13.093069
O	17.917715	8.262962	17.912254
O	18.270582	5.852648	10.683499
O	10.677294	8.615084	15.501940
O	10.677294	5.852648	18.264376
O	18.270582	8.615084	13.445936
O	17.856679	6.266550	15.915842
O	15.860267	3.443777	11.035622
O	15.860267	6.205515	17.912254
O	17.856679	3.382741	13.032033
Na	12.037424	12.085805	2.436514
Na	14.473938	9.649292	4.824646
Na	12.037424	16.862070	7.212778
Na	14.473938	14.473938	0.000000
Na	16.910451	12.085805	7.212778
Na	9.649292	9.649292	0.000000
Na	16.910451	16.862070	2.436514
Tm	10.852374	18.125312	3.621564
Tm	13.274087	10.849143	8.449441
Tm	13.300666	13.270856	6.027728
Tm	10.852374	10.822563	6.027728
Tm	10.852374	13.270856	8.476020
Tm	13.300666	15.677019	3.621564
Tm	13.274087	18.098733	1.199851
Tm	10.852374	15.677019	1.173271
Tm	15.673789	18.098733	8.449441
Tm	18.095502	10.822563	3.621564
Tm	18.095502	13.270856	1.173271
Tm	15.673789	10.849143	1.199851
Tm	15.647209	13.270856	3.621564
Tm	18.095502	15.677019	8.476020
Tm	18.095502	18.125312	6.027728
Tm	15.647209	15.677019	6.027728
O	13.442689	10.680540	1.031248
O	15.508145	13.445936	5.852648
O	15.505186	10.680540	8.618043
O	13.439730	13.445936	3.796644
O	13.087608	11.035622	6.205515
O	11.030161	17.912254	1.386330
O	11.030161	11.035622	8.262962
O	13.087608	17.912254	3.443777
O	13.439730	15.501940	5.852648
O	15.505186	18.267335	1.031248
O	15.508145	15.501940	3.796644
O	13.442689	18.267335	8.618043
O	13.087608	15.854807	1.386330
O	11.091196	13.032033	6.266550
O	11.091196	15.915842	3.382741
O	13.087608	13.093069	8.262962
O	18.270582	10.683499	5.852648
O	10.677294	13.445936	1.034208
O	10.677294	10.683499	3.796644
O	18.270582	13.445936	8.615084
O	17.917715	11.035622	1.386330
O	15.860267	17.912254	6.205515
O	15.860267	11.035622	3.443777
O	17.917715	17.912254	8.262962
O	18.270582	15.501940	1.034208
O	10.677294	18.264376	5.852648
O	10.677294	15.501940	8.615084
O	18.270582	18.264376	3.796644
O	17.856679	15.915842	6.266550
O	15.860267	13.093069	1.386330
O	15.860267	15.854807	8.262962
O	17.856679	13.032033	3.382741
Na	12.037424	12.085805	12.085805
Na	14.473938	9.649292	14.473938
Na	12.037424	16.862070	16.862070
Na	14.473938	14.473938	9.649292
Na	16.910451	12.085805	16.862070
Na	9.649292	9.649292	9.649292
Na	16.910451	16.862070	12.085805
Tm	10.852374	18.125312	13.270856
Tm	13.274087	10.849143	18.098733
Tm	13.300666	13.270856	15.677019
Tm	10.852374	10.822563	15.677019
Tm	10.852374	13.270856	18.125312
Tm	13.300666	15.677019	13.270856
Tm	13.274087	18.098733	10.849143
Tm	10.852374	15.677019	10.822563
Tm	15.673789	18.098733	18.098733
Tm	18.095502	10.822563	13.270856
Tm	18.095502	13.270856	10.822563
Tm	15.673789	10.849143	10.849143
Tm	15.647209	13.270856	13.270856
Tm	18.095502	15.677019	18.125312
Tm	18.095502	18.125312	15.677019
Tm	15.647209	15.677019	15.677019
O	13.442689	10.680540	10.680540
O	15.508145	13.445936	15.501940
O	15.505186	10.680540	18.267335
O	13.439730	13.445936	13.445936
O	13.087608	11.035622	15.854807
O	11.030161	17.912254	11.035622
O	11.030161	11.035622	17.912254
O	13.087608	17.912254	13.093069
O	13.439730	15.501940	15.501940
O	15.505186	18.267335	10.680540
O	15.508145	15.501940	13.445936
O	13.442689	18.267335	18.267335
O	13.087608	15.854807	11.035622
O	11.091196	13.032033	15.915842
O	11.091196	15.915842	13.032033
O	13.087608	13.093069	17.912254
O	18.270582	10.683499	15.501940
O	10.677294	13.445936	10.683499
O	10.677294	10.683499	13.445936
O	18.270582	13.445936	18.264376
O	17.917715	11.035622	11.035622
O	15.860267	17.912254	15.854807
O	15.860267	11.035622	13.093069
O	17.917715	17.912254	17.912254
O	18.270582	15.501940	10.683499
O	10.677294	18.264376	15.501940
O	10.677294	15.501940	18.264376
O	18.270582	18.264376	13.445936
O	17.856679	15.915842	15.915842
O	15.860267	13.093069	11.035622
O	15.860267	15.854807	17.912254
O	17.856679	13.032033	13.032033
