40

O	1.969190	1.969190	0.000000
O	0.000000	1.969190	1.969190
O	1.969190	0.000000	1.969190
Os_pv	1.969190	1.969190	1.969190
Tb_3	0.000000	0.000000	0.000000
O	1.969190	1.969190	3.938377
O	0.000000	1.969190	5.907567
O	1.969190	0.000000	5.907567
Os_pv	1.969190	1.969190	5.907567
Tb_3	0.000000	0.000000	3.938377
O	1.969190	5.907567	0.000000
O	0.000000	5.907567	1.969190
O	1.969190	3.938377	1.969190
Os_pv	1.969190	5.907567	1.969190
Tb_3	0.000000	3.938377	0.000000
O	1.969190	5.907567	3.938377
O	0.000000	5.907567	5.907567
O	1.969190	3.938377	5.907567
Os_pv	1.969190	5.907567	5.907567
Tb_3	0.000000	3.938377	3.938377
O	5.907567	1.969190	0.000000
O	3.938377	1.969190	1.969190
O	5.907567	0.000000	1.969190
Os_pv	5.907567	1.969190	1.969190
Tb_3	3.938377	0.000000	0.000000
O	5.907567	1.969190	3.938377
O	3.938377	1.969190	5.907567
O	5.907567	0.000000	5.907567
Os_pv	5.907567	1.969190	5.907567
Tb_3	3.938377	0.000000	3.938377
O	5.907567	5.907567	0.000000
O	3.938377	5.907567	1.969190
O	5.907567	3.938377	1.969190
Os_pv	5.907567	5.907567	1.969190
Tb_3	3.938377	3.938377	0.000000
O	5.907567	5.907567	3.938377
O	3.938377	5.907567	5.907567
O	5.907567	3.938377	5.907567
Os_pv	5.907567	5.907567	5.907567
Tb_3	3.938377	3.938377	3.938377
