40

Ga	0.000000	0.000000	0.000000
Hf	2.057224	2.057224	2.057224
O	2.057224	2.057224	0.000000
O	2.057224	0.000000	2.057224
O	0.000000	2.057224	2.057224
Ga	0.000000	0.000000	4.114447
Hf	2.057224	2.057224	6.171671
O	2.057224	2.057224	4.114447
O	2.057224	0.000000	6.171671
O	0.000000	2.057224	6.171671
Ga	0.000000	4.114447	0.000000
Hf	2.057224	6.171671	2.057224
O	2.057224	6.171671	0.000000
O	2.057224	4.114447	2.057224
O	0.000000	6.171671	2.057224
Ga	0.000000	4.114447	4.114447
Hf	2.057224	6.171671	6.171671
O	2.057224	6.171671	4.114447
O	2.057224	4.114447	6.171671
O	0.000000	6.171671	6.171671
Ga	4.114447	0.000000	0.000000
Hf	6.171671	2.057224	2.057224
O	6.171671	2.057224	0.000000
O	6.171671	0.000000	2.057224
O	4.114447	2.057224	2.057224
Ga	4.114447	0.000000	4.114447
Hf	6.171671	2.057224	6.171671
O	6.171671	2.057224	4.114447
O	6.171671	0.000000	6.171671
O	4.114447	2.057224	6.171671
Ga	4.114447	4.114447	0.000000
Hf	6.171671	6.171671	2.057224
O	6.171671	6.171671	0.000000
O	6.171671	4.114447	2.057224
O	4.114447	6.171671	2.057224
Ga	4.114447	4.114447	4.114447
Hf	6.171671	6.171671	6.171671
O	6.171671	6.171671	4.114447
O	6.171671	4.114447	6.171671
O	4.114447	6.171671	6.171671
