112

Mo	0.000000	0.000000	0.000000
Mo	2.192364	-2.192743	-2.192743
O	3.354048	-1.029935	-1.029935
O	-1.030681	1.029935	-3.355550
O	1.030681	-1.029935	-3.355550
O	1.161683	1.162807	-1.162807
O	5.415409	1.029935	-1.029935
O	1.161683	3.222678	-3.222678
O	3.223045	3.222678	-1.162807
O	3.223045	1.162807	-3.222678
W	-1.096182	-1.096371	-3.289114
W	3.288546	1.096371	-1.096371
W	5.480911	-1.096371	-1.096371
W	1.096182	1.096371	-3.289114
Mo	4.384728	4.385485	0.000000
Mo	6.577093	2.192743	-2.192743
O	7.738776	3.355550	-1.029935
O	3.354048	5.415421	-3.355550
O	5.415409	3.355550	-3.355550
O	5.546412	5.548293	-1.162807
O	9.800138	5.415421	-1.029935
O	5.546412	7.608163	-3.222678
O	7.607774	7.608163	-1.162807
O	7.607774	5.548293	-3.222678
W	3.288546	3.289114	-3.289114
W	7.673275	5.481857	-1.096371
W	9.865639	3.289114	-1.096371
W	5.480911	5.481857	-3.289114
Mo	-4.384728	0.000000	-4.385485
Mo	-2.192364	-2.192743	-6.578228
O	-1.030681	-1.029935	-5.415421
O	-5.415409	1.029935	-7.741035
O	-3.354048	-1.029935	-7.741035
O	-3.223045	1.162807	-5.548293
O	1.030681	1.029935	-5.415421
O	-3.223045	3.222678	-7.608163
O	-1.161683	3.222678	-5.548293
O	-1.161683	1.162807	-7.608163
W	-5.480911	-1.096371	-7.674599
W	-1.096182	1.096371	-5.481857
W	1.096182	-1.096371	-5.481857
W	-3.288546	1.096371	-7.674599
Mo	0.000000	4.385485	-4.385485
Mo	2.192364	2.192743	-6.578228
O	3.354048	3.355550	-5.415421
O	-1.030681	5.415421	-7.741035
O	1.030681	3.355550	-7.741035
O	1.161683	5.548293	-5.548293
O	5.415409	5.415421	-5.415421
O	1.161683	7.608163	-7.608163
O	3.223045	7.608163	-5.548293
O	3.223045	5.548293	-7.608163
W	-1.096182	3.289114	-7.674599
W	3.288546	5.481857	-5.481857
W	5.480911	3.289114	-5.481857
W	1.096182	5.481857	-7.674599
Mo	4.384728	-4.385485	0.000000
Mo	6.577093	-6.578228	-2.192743
O	7.738776	-5.415421	-1.029935
O	3.354048	-3.355550	-3.355550
O	5.415409	-5.415421	-3.355550
O	5.546412	-3.222678	-1.162807
O	9.800138	-3.355550	-1.029935
O	5.546412	-1.162807	-3.222678
O	7.607774	-1.162807	-1.162807
O	7.607774	-3.222678	-3.222678
W	3.288546	-5.481857	-3.289114
W	7.673275	-3.289114	-1.096371
W	9.865639	-5.481857	-1.096371
W	5.480911	-3.289114	-3.289114
Mo	8.769457	0.000000	0.000000
Mo	10.961821	-2.192743	-2.192743
O	12.123505	-1.029935	-1.029935
O	7.738776	1.029935	-3.355550
O	9.800138	-1.029935	-3.355550
O	9.931140	1.162807	-1.162807
O	14.184866	1.029935	-1.029935
O	9.931140	3.222678	-3.222678
O	11.992502	3.222678	-1.162807
O	11.992502	1.162807	-3.222678
W	7.673275	-1.096371	-3.289114
W	12.058003	1.096371	-1.096371
W	14.250368	-1.096371	-1.096371
W	9.865639	1.096371	-3.289114
Mo	0.000000	-4.385485	-4.385485
Mo	2.192364	-6.578228	-6.578228
O	3.354048	-5.415421	-5.415421
O	-1.030681	-3.355550	-7.741035
O	1.030681	-5.415421	-7.741035
O	1.161683	-3.222678	-5.548293
O	5.415409	-3.355550	-5.415421
O	1.161683	-1.162807	-7.608163
O	3.223045	-1.162807	-5.548293
O	3.223045	-3.222678	-7.608163
W	-1.096182	-5.481857	-7.674599
W	3.288546	-3.289114	-5.481857
W	5.480911	-5.481857	-5.481857
W	1.096182	-3.289114	-7.674599
Mo	4.384728	0.000000	-4.385485
Mo	6.577093	-2.192743	-6.578228
O	7.738776	-1.029935	-5.415421
O	3.354048	1.029935	-7.741035
O	5.415409	-1.029935	-7.741035
O	5.546412	1.162807	-5.548293
O	9.800138	1.029935	-5.415421
O	5.546412	3.222678	-7.608163
O	7.607774	3.222678	-5.548293
O	7.607774	1.162807	-7.608163
W	3.288546	-1.096371	-7.674599
W	7.673275	1.096371	-5.481857
W	9.865639	-1.096371	-5.481857
W	5.480911	1.096371	-7.674599
