40

Np	2.198200	2.198200	2.198200
O	2.198200	2.198200	0.000000
O	0.000000	2.198200	2.198200
O	2.198200	0.000000	2.198200
Pb_d	0.000000	0.000000	0.000000
Np	2.198200	2.198200	6.594606
O	2.198200	2.198200	4.396406
O	0.000000	2.198200	6.594606
O	2.198200	0.000000	6.594606
Pb_d	0.000000	0.000000	4.396406
Np	2.198200	6.594606	2.198200
O	2.198200	6.594606	0.000000
O	0.000000	6.594606	2.198200
O	2.198200	4.396406	2.198200
Pb_d	0.000000	4.396406	0.000000
Np	2.198200	6.594606	6.594606
O	2.198200	6.594606	4.396406
O	0.000000	6.594606	6.594606
O	2.198200	4.396406	6.594606
Pb_d	0.000000	4.396406	4.396406
Np	6.594606	2.198200	2.198200
O	6.594606	2.198200	0.000000
O	4.396406	2.198200	2.198200
O	6.594606	0.000000	2.198200
Pb_d	4.396406	0.000000	0.000000
Np	6.594606	2.198200	6.594606
O	6.594606	2.198200	4.396406
O	4.396406	2.198200	6.594606
O	6.594606	0.000000	6.594606
Pb_d	4.396406	0.000000	4.396406
Np	6.594606	6.594606	2.198200
O	6.594606	6.594606	0.000000
O	4.396406	6.594606	2.198200
O	6.594606	4.396406	2.198200
Pb_d	4.396406	4.396406	0.000000
Np	6.594606	6.594606	6.594606
O	6.594606	6.594606	4.396406
O	4.396406	6.594606	6.594606
O	6.594606	4.396406	6.594606
Pb_d	4.396406	4.396406	4.396406
