40

Hf	0.000000	0.000000	0.000000
O	1.914030	0.000000	1.914030
O	0.000000	1.914030	1.914030
O	1.914030	1.914030	0.000000
Ti	1.914030	1.914030	1.914030
Hf	0.000000	0.000000	3.828059
O	1.914030	0.000000	5.742089
O	0.000000	1.914030	5.742089
O	1.914030	1.914030	3.828059
Ti	1.914030	1.914030	5.742089
Hf	0.000000	3.828059	0.000000
O	1.914030	3.828059	1.914030
O	0.000000	5.742089	1.914030
O	1.914030	5.742089	0.000000
Ti	1.914030	5.742089	1.914030
Hf	0.000000	3.828059	3.828059
O	1.914030	3.828059	5.742089
O	0.000000	5.742089	5.742089
O	1.914030	5.742089	3.828059
Ti	1.914030	5.742089	5.742089
Hf	3.828059	0.000000	0.000000
O	5.742089	0.000000	1.914030
O	3.828059	1.914030	1.914030
O	5.742089	1.914030	0.000000
Ti	5.742089	1.914030	1.914030
Hf	3.828059	0.000000	3.828059
O	5.742089	0.000000	5.742089
O	3.828059	1.914030	5.742089
O	5.742089	1.914030	3.828059
Ti	5.742089	1.914030	5.742089
Hf	3.828059	3.828059	0.000000
O	5.742089	3.828059	1.914030
O	3.828059	5.742089	1.914030
O	5.742089	5.742089	0.000000
Ti	5.742089	5.742089	1.914030
Hf	3.828059	3.828059	3.828059
O	5.742089	3.828059	5.742089
O	3.828059	5.742089	5.742089
O	5.742089	5.742089	3.828059
Ti	5.742089	5.742089	5.742089
