112

Ag	0.000000	0.000000	0.000000
Ag	2.348962	-2.349516	-2.349516
O	3.709016	-0.988704	-0.988704
O	-0.988909	0.988704	-3.710338
O	0.988909	-0.988704	-3.710338
O	1.360053	1.360822	-1.360822
O	5.686844	0.988704	-0.988704
O	1.360053	3.338221	-3.338221
O	3.337882	3.338221	-1.360822
O	3.337882	1.360822	-3.338221
Sn	-1.174486	-1.174763	-3.524279
Sn	5.872411	-1.174763	-1.174763
Sn	3.523449	1.174763	-1.174763
Sn	1.174486	1.174763	-3.524279
Ag	4.697929	4.699034	0.000000
Ag	7.046891	2.349518	-2.349516
O	8.406945	3.710330	-0.988704
O	3.709020	5.687738	-3.710338
O	5.686838	3.710330	-3.710338
O	6.057982	6.059856	-1.360822
O	10.384773	5.687738	-0.988704
O	6.057982	8.037255	-3.338221
O	8.035810	8.037255	-1.360822
O	8.035810	6.059856	-3.338221
Sn	3.523442	3.524271	-3.524279
Sn	10.570340	3.524271	-1.174763
Sn	8.221377	5.873797	-1.174763
Sn	5.872415	5.873797	-3.524279
Ag	-4.697929	0.000000	-4.699034
Ag	-2.348966	-2.349516	-7.048550
O	-0.988913	-0.988704	-5.687738
O	-5.686838	0.988704	-8.409372
O	-3.709020	-0.988704	-8.409372
O	-3.337875	1.360822	-6.059856
O	0.988915	0.988704	-5.687738
O	-3.337875	3.338221	-8.037255
O	-1.360047	3.338221	-6.059856
O	-1.360047	1.360822	-8.037255
Sn	-5.872415	-1.174763	-8.223313
Sn	1.174483	-1.174763	-5.873797
Sn	-1.174480	1.174763	-5.873797
Sn	-3.523442	1.174763	-8.223313
Ag	0.000000	4.699034	-4.699034
Ag	2.348962	2.349518	-7.048550
O	3.709016	3.710330	-5.687738
O	-0.988909	5.687738	-8.409372
O	0.988909	3.710330	-8.409372
O	1.360053	6.059856	-6.059856
O	5.686844	5.687738	-5.687738
O	1.360053	8.037255	-8.037255
O	3.337882	8.037255	-6.059856
O	3.337882	6.059856	-8.037255
Sn	-1.174486	3.524271	-8.223313
Sn	5.872411	3.524271	-5.873797
Sn	3.523449	5.873797	-5.873797
Sn	1.174486	5.873797	-8.223313
Ag	4.697929	-4.699034	0.000000
Ag	7.046891	-7.048550	-2.349516
O	8.406945	-5.687738	-0.988704
O	3.709020	-3.710330	-3.710338
O	5.686838	-5.687738	-3.710338
O	6.057982	-3.338212	-1.360822
O	10.384773	-3.710330	-0.988704
O	6.057982	-1.360813	-3.338221
O	8.035810	-1.360813	-1.360822
O	8.035810	-3.338212	-3.338221
Sn	3.523442	-5.873797	-3.524279
Sn	10.570340	-5.873797	-1.174763
Sn	8.221377	-3.524271	-1.174763
Sn	5.872415	-3.524271	-3.524279
Ag	9.395857	0.000000	0.000000
Ag	11.744820	-2.349516	-2.349516
O	13.104873	-0.988704	-0.988704
O	8.406948	0.988704	-3.710338
O	10.384766	-0.988704	-3.710338
O	10.755911	1.360822	-1.360822
O	15.082701	0.988704	-0.988704
O	10.755911	3.338221	-3.338221
O	12.733739	3.338221	-1.360822
O	12.733739	1.360822	-3.338221
Sn	8.221371	-1.174763	-3.524279
Sn	15.268268	-1.174763	-1.174763
Sn	12.919306	1.174763	-1.174763
Sn	10.570344	1.174763	-3.524279
Ag	0.000000	-4.699034	-4.699034
Ag	2.348962	-7.048550	-7.048550
O	3.709016	-5.687738	-5.687738
O	-0.988909	-3.710330	-8.409372
O	0.988909	-5.687738	-8.409372
O	1.360053	-3.338212	-6.059856
O	5.686844	-3.710330	-5.687738
O	1.360053	-1.360813	-8.037255
O	3.337882	-1.360813	-6.059856
O	3.337882	-3.338212	-8.037255
Sn	-1.174486	-5.873797	-8.223313
Sn	5.872411	-5.873797	-5.873797
Sn	3.523449	-3.524271	-5.873797
Sn	1.174486	-3.524271	-8.223313
Ag	4.697929	0.000000	-4.699034
Ag	7.046891	-2.349516	-7.048550
O	8.406945	-0.988704	-5.687738
O	3.709020	0.988704	-8.409372
O	5.686838	-0.988704	-8.409372
O	6.057982	1.360822	-6.059856
O	10.384773	0.988704	-5.687738
O	6.057982	3.338221	-8.037255
O	8.035810	3.338221	-6.059856
O	8.035810	1.360822	-8.037255
Sn	3.523442	-1.174763	-8.223313
Sn	10.570340	-1.174763	-5.873797
Sn	8.221377	1.174763	-5.873797
Sn	5.872415	1.174763	-8.223313
