112

Cd	0.000000	0.000000	0.000000
Cd	2.487011	-2.487636	-2.487636
O	3.815270	-1.148400	-1.148400
O	-1.158752	1.148400	-3.826883
O	1.158752	-1.148400	-3.826883
O	1.328259	1.339237	-1.339237
O	6.132784	1.148400	-1.148400
O	1.328259	3.636046	-3.636046
O	3.645773	3.636046	-1.339237
O	3.645773	1.339237	-3.636046
U	-1.243510	-1.243823	-3.731460
U	6.217532	-1.243823	-1.243823
U	1.243510	1.243823	-3.731460
U	3.730521	1.243823	-1.243823
Cd	4.974026	4.975283	0.000000
Cd	7.461037	2.487646	-2.487636
O	8.789296	3.826883	-1.148400
O	3.815274	6.123683	-3.826883
O	6.132778	3.826883	-3.826883
O	6.302285	6.314519	-1.339237
O	11.106810	6.123683	-1.148400
O	6.302285	8.611329	-3.636046
O	8.619799	8.611329	-1.339237
O	8.619799	6.314519	-3.636046
U	3.730516	3.731460	-3.731460
U	11.191558	3.731460	-1.243823
U	6.217537	6.219106	-3.731460
U	8.704547	6.219106	-1.243823
Cd	-4.974026	0.000000	-4.975283
Cd	-2.487015	-2.487636	-7.462919
O	-1.158756	-1.148400	-6.123683
O	-6.132778	1.148400	-8.802166
O	-3.815274	-1.148400	-8.802166
O	-3.645767	1.339237	-6.314519
O	1.158758	1.148400	-6.123683
O	-3.645767	3.636046	-8.611329
O	-1.328253	3.636046	-6.314519
O	-1.328253	1.339237	-8.611329
U	-6.217537	-1.243823	-8.706743
U	1.243506	-1.243823	-6.219106
U	-3.730516	1.243823	-8.706743
U	-1.243505	1.243823	-6.219106
Cd	0.000000	4.975283	-4.975283
Cd	2.487011	2.487646	-7.462919
O	3.815270	3.826883	-6.123683
O	-1.158752	6.123683	-8.802166
O	1.158752	3.826883	-8.802166
O	1.328259	6.314519	-6.314519
O	6.132784	6.123683	-6.123683
O	1.328259	8.611329	-8.611329
O	3.645773	8.611329	-6.314519
O	3.645773	6.314519	-8.611329
U	-1.243510	3.731460	-8.706743
U	6.217532	3.731460	-6.219106
U	1.243510	6.219106	-8.706743
U	3.730521	6.219106	-6.219106
Cd	4.974026	-4.975283	0.000000
Cd	7.461037	-7.462919	-2.487636
O	8.789296	-6.123683	-1.148400
O	3.815274	-3.826883	-3.826883
O	6.132778	-6.123683	-3.826883
O	6.302285	-3.636046	-1.339237
O	11.106810	-3.826883	-1.148400
O	6.302285	-1.339236	-3.636046
O	8.619799	-1.339237	-1.339237
O	8.619799	-3.636046	-3.636046
U	3.730516	-6.219106	-3.731460
U	11.191558	-6.219106	-1.243823
U	6.217537	-3.731460	-3.731460
U	8.704547	-3.731460	-1.243823
Cd	9.948052	0.000000	0.000000
Cd	12.435063	-2.487636	-2.487636
O	13.763322	-1.148400	-1.148400
O	8.789300	1.148400	-3.826883
O	11.106804	-1.148400	-3.826883
O	11.276311	1.339237	-1.339237
O	16.080836	1.148400	-1.148400
O	11.276311	3.636046	-3.636046
O	13.593825	3.636046	-1.339237
O	13.593825	1.339237	-3.636046
U	8.704542	-1.243823	-3.731460
U	16.165584	-1.243823	-1.243823
U	11.191563	1.243823	-3.731460
U	13.678573	1.243823	-1.243823
Cd	0.000000	-4.975283	-4.975283
Cd	2.487011	-7.462919	-7.462919
O	3.815270	-6.123683	-6.123683
O	-1.158752	-3.826883	-8.802166
O	1.158752	-6.123683	-8.802166
O	1.328259	-3.636046	-6.314519
O	6.132784	-3.826883	-6.123683
O	1.328259	-1.339236	-8.611329
O	3.645773	-1.339237	-6.314519
O	3.645773	-3.636046	-8.611329
U	-1.243510	-6.219106	-8.706743
U	6.217532	-6.219106	-6.219106
U	1.243510	-3.731460	-8.706743
U	3.730521	-3.731460	-6.219106
Cd	4.974026	0.000000	-4.975283
Cd	7.461037	-2.487636	-7.462919
O	8.789296	-1.148400	-6.123683
O	3.815274	1.148400	-8.802166
O	6.132778	-1.148400	-8.802166
O	6.302285	1.339237	-6.314519
O	11.106810	1.148400	-6.123683
O	6.302285	3.636046	-8.611329
O	8.619799	3.636046	-6.314519
O	8.619799	1.339237	-8.611329
U	3.730516	-1.243823	-8.706743
U	11.191558	-1.243823	-6.219106
U	6.217537	1.243823	-8.706743
U	8.704547	1.243823	-6.219106
