40

Li	2.087644	2.087644	2.087644
O	0.000000	2.087644	2.087644
O	2.087644	0.000000	2.087644
O	2.087644	2.087644	0.000000
Rb	0.000000	0.000000	0.000000
Li	2.087644	2.087644	6.262932
O	0.000000	2.087644	6.262932
O	2.087644	0.000000	6.262932
O	2.087644	2.087644	4.175288
Rb	0.000000	0.000000	4.175288
Li	2.087644	6.262932	2.087644
O	0.000000	6.262932	2.087644
O	2.087644	4.175288	2.087644
O	2.087644	6.262932	0.000000
Rb	0.000000	4.175288	0.000000
Li	2.087644	6.262932	6.262932
O	0.000000	6.262932	6.262932
O	2.087644	4.175288	6.262932
O	2.087644	6.262932	4.175288
Rb	0.000000	4.175288	4.175288
Li	6.262932	2.087644	2.087644
O	4.175288	2.087644	2.087644
O	6.262932	0.000000	2.087644
O	6.262932	2.087644	0.000000
Rb	4.175288	0.000000	0.000000
Li	6.262932	2.087644	6.262932
O	4.175288	2.087644	6.262932
O	6.262932	0.000000	6.262932
O	6.262932	2.087644	4.175288
Rb	4.175288	0.000000	4.175288
Li	6.262932	6.262932	2.087644
O	4.175288	6.262932	2.087644
O	6.262932	4.175288	2.087644
O	6.262932	6.262932	0.000000
Rb	4.175288	4.175288	0.000000
Li	6.262932	6.262932	6.262932
O	4.175288	6.262932	6.262932
O	6.262932	4.175288	6.262932
O	6.262932	6.262932	4.175288
Rb	4.175288	4.175288	4.175288
