40

Bi	0.000000	0.000000	0.000000
O	2.020618	2.020618	0.000000
O	2.020618	0.000000	2.020618
O	0.000000	2.020618	2.020618
W	2.020618	2.020618	2.020618
Bi	0.000000	0.000000	4.041237
O	2.020618	2.020618	4.041237
O	2.020618	0.000000	6.061855
O	0.000000	2.020618	6.061855
W	2.020618	2.020618	6.061855
Bi	0.000000	4.041237	0.000000
O	2.020618	6.061855	0.000000
O	2.020618	4.041237	2.020618
O	0.000000	6.061855	2.020618
W	2.020618	6.061855	2.020618
Bi	0.000000	4.041237	4.041237
O	2.020618	6.061855	4.041237
O	2.020618	4.041237	6.061855
O	0.000000	6.061855	6.061855
W	2.020618	6.061855	6.061855
Bi	4.041237	0.000000	0.000000
O	6.061855	2.020618	0.000000
O	6.061855	0.000000	2.020618
O	4.041237	2.020618	2.020618
W	6.061855	2.020618	2.020618
Bi	4.041237	0.000000	4.041237
O	6.061855	2.020618	4.041237
O	6.061855	0.000000	6.061855
O	4.041237	2.020618	6.061855
W	6.061855	2.020618	6.061855
Bi	4.041237	4.041237	0.000000
O	6.061855	6.061855	0.000000
O	6.061855	4.041237	2.020618
O	4.041237	6.061855	2.020618
W	6.061855	6.061855	2.020618
Bi	4.041237	4.041237	4.041237
O	6.061855	6.061855	4.041237
O	6.061855	4.041237	6.061855
O	4.041237	6.061855	6.061855
W	6.061855	6.061855	6.061855
