40

Bi	2.148561	2.148561	2.148561
O	2.148561	2.148561	0.000000
O	2.148561	0.000000	2.148561
O	0.000000	2.148561	2.148561
W	0.000000	0.000000	0.000000
Bi	2.148561	2.148561	6.445683
O	2.148561	2.148561	4.297122
O	2.148561	0.000000	6.445683
O	0.000000	2.148561	6.445683
W	0.000000	0.000000	4.297122
Bi	2.148561	6.445683	2.148561
O	2.148561	6.445683	0.000000
O	2.148561	4.297122	2.148561
O	0.000000	6.445683	2.148561
W	0.000000	4.297122	0.000000
Bi	2.148561	6.445683	6.445683
O	2.148561	6.445683	4.297122
O	2.148561	4.297122	6.445683
O	0.000000	6.445683	6.445683
W	0.000000	4.297122	4.297122
Bi	6.445683	2.148561	2.148561
O	6.445683	2.148561	0.000000
O	6.445683	0.000000	2.148561
O	4.297122	2.148561	2.148561
W	4.297122	0.000000	0.000000
Bi	6.445683	2.148561	6.445683
O	6.445683	2.148561	4.297122
O	6.445683	0.000000	6.445683
O	4.297122	2.148561	6.445683
W	4.297122	0.000000	4.297122
Bi	6.445683	6.445683	2.148561
O	6.445683	6.445683	0.000000
O	6.445683	4.297122	2.148561
O	4.297122	6.445683	2.148561
W	4.297122	4.297122	0.000000
Bi	6.445683	6.445683	6.445683
O	6.445683	6.445683	4.297122
O	6.445683	4.297122	6.445683
O	4.297122	6.445683	6.445683
W	4.297122	4.297122	4.297122
