40

Bi	0.000000	0.000000	0.000000
O	0.000000	2.027392	2.027392
O	2.027392	0.000000	2.027392
O	2.027392	2.027392	0.000000
W	2.027392	2.027392	2.027392
Bi	0.000000	0.000000	4.054784
O	0.000000	2.027392	6.082177
O	2.027392	0.000000	6.082177
O	2.027392	2.027392	4.054784
W	2.027392	2.027392	6.082177
Bi	0.000000	4.054784	0.000000
O	0.000000	6.082177	2.027392
O	2.027392	4.054784	2.027392
O	2.027392	6.082177	0.000000
W	2.027392	6.082177	2.027392
Bi	0.000000	4.054784	4.054784
O	0.000000	6.082177	6.082177
O	2.027392	4.054784	6.082177
O	2.027392	6.082177	4.054784
W	2.027392	6.082177	6.082177
Bi	4.054784	0.000000	0.000000
O	4.054784	2.027392	2.027392
O	6.082177	0.000000	2.027392
O	6.082177	2.027392	0.000000
W	6.082177	2.027392	2.027392
Bi	4.054784	0.000000	4.054784
O	4.054784	2.027392	6.082177
O	6.082177	0.000000	6.082177
O	6.082177	2.027392	4.054784
W	6.082177	2.027392	6.082177
Bi	4.054784	4.054784	0.000000
O	4.054784	6.082177	2.027392
O	6.082177	4.054784	2.027392
O	6.082177	6.082177	0.000000
W	6.082177	6.082177	2.027392
Bi	4.054784	4.054784	4.054784
O	4.054784	6.082177	6.082177
O	6.082177	4.054784	6.082177
O	6.082177	6.082177	4.054784
W	6.082177	6.082177	6.082177
