112

Np	0.000000	0.000000	0.000000
Np	2.368872	-2.369395	-2.369395
O	3.607531	-1.129911	-1.129911
O	-1.130212	1.129911	-3.608878
O	1.130212	-1.129911	-3.608878
O	1.238659	1.239483	-1.239483
O	5.867956	1.129911	-1.129911
O	1.238659	3.499306	-3.499306
O	3.499084	3.499306	-1.239483
O	3.499084	1.239483	-3.499306
Yb	-1.184441	-1.184702	-3.554097
Yb	5.922185	-1.184702	-1.184702
Yb	3.553313	1.184702	-1.184702
Yb	1.184441	1.184702	-3.554097
Np	4.737746	4.738791	0.000000
Np	7.106618	2.369396	-2.369395
O	8.345277	3.608880	-1.129911
O	3.607534	5.868702	-3.608878
O	5.867959	3.608880	-3.608878
O	5.976406	5.978275	-1.239483
O	10.605702	5.868702	-1.129911
O	5.976406	8.238097	-3.499306
O	8.236831	8.238097	-1.239483
O	8.236831	5.978275	-3.499306
Yb	3.553305	3.554089	-3.554097
Yb	10.659931	3.554089	-1.184702
Yb	8.291059	5.923493	-1.184702
Yb	5.922187	5.923493	-3.554097
Np	-4.737746	0.000000	-4.738791
Np	-2.368874	-2.369395	-7.108186
O	-1.130215	-1.129911	-5.868702
O	-5.867959	1.129911	-8.347669
O	-3.607534	-1.129911	-8.347669
O	-3.499087	1.239483	-5.978275
O	1.130210	1.129911	-5.868702
O	-3.499087	3.499306	-8.238097
O	-1.238662	3.499306	-5.978275
O	-1.238662	1.239483	-8.238097
Yb	-5.922187	-1.184702	-8.292888
Yb	1.184439	-1.184702	-5.923493
Yb	-1.184433	1.184702	-5.923493
Yb	-3.553305	1.184702	-8.292888
Np	0.000000	4.738791	-4.738791
Np	2.368872	2.369396	-7.108186
O	3.607531	3.608880	-5.868702
O	-1.130212	5.868702	-8.347669
O	1.130212	3.608880	-8.347669
O	1.238659	5.978275	-5.978275
O	5.867956	5.868702	-5.868702
O	1.238659	8.238097	-8.238097
O	3.499084	8.238097	-5.978275
O	3.499084	5.978275	-8.238097
Yb	-1.184441	3.554089	-8.292888
Yb	5.922185	3.554089	-5.923493
Yb	3.553313	5.923493	-5.923493
Yb	1.184441	5.923493	-8.292888
Np	4.737746	-4.738791	0.000000
Np	7.106618	-7.108186	-2.369395
O	8.345277	-5.868702	-1.129911
O	3.607534	-3.608880	-3.608878
O	5.867959	-5.868702	-3.608878
O	5.976406	-3.499308	-1.239483
O	10.605702	-3.608880	-1.129911
O	5.976406	-1.239485	-3.499306
O	8.236831	-1.239485	-1.239483
O	8.236831	-3.499308	-3.499306
Yb	3.553305	-5.923493	-3.554097
Yb	10.659931	-5.923493	-1.184702
Yb	8.291059	-3.554089	-1.184702
Yb	5.922187	-3.554089	-3.554097
Np	9.475492	0.000000	0.000000
Np	11.844364	-2.369395	-2.369395
O	13.083024	-1.129911	-1.129911
O	8.345280	1.129911	-3.608878
O	10.605705	-1.129911	-3.608878
O	10.714152	1.239483	-1.239483
O	15.343448	1.129911	-1.129911
O	10.714152	3.499306	-3.499306
O	12.974577	3.499306	-1.239483
O	12.974577	1.239483	-3.499306
Yb	8.291051	-1.184702	-3.554097
Yb	15.397677	-1.184702	-1.184702
Yb	13.028805	1.184702	-1.184702
Yb	10.659933	1.184702	-3.554097
Np	0.000000	-4.738791	-4.738791
Np	2.368872	-7.108186	-7.108186
O	3.607531	-5.868702	-5.868702
O	-1.130212	-3.608880	-8.347669
O	1.130212	-5.868702	-8.347669
O	1.238659	-3.499308	-5.978275
O	5.867956	-3.608880	-5.868702
O	1.238659	-1.239485	-8.238097
O	3.499084	-1.239485	-5.978275
O	3.499084	-3.499308	-8.238097
Yb	-1.184441	-5.923493	-8.292888
Yb	5.922185	-5.923493	-5.923493
Yb	3.553313	-3.554089	-5.923493
Yb	1.184441	-3.554089	-8.292888
Np	4.737746	0.000000	-4.738791
Np	7.106618	-2.369395	-7.108186
O	8.345277	-1.129911	-5.868702
O	3.607534	1.129911	-8.347669
O	5.867959	-1.129911	-8.347669
O	5.976406	1.239483	-5.978275
O	10.605702	1.129911	-5.868702
O	5.976406	3.499306	-8.238097
O	8.236831	3.499306	-5.978275
O	8.236831	1.239483	-8.238097
Yb	3.553305	-1.184702	-8.292888
Yb	10.659931	-1.184702	-5.923493
Yb	8.291059	1.184702	-5.923493
Yb	5.922187	1.184702	-8.292888
