40

Eu	0.000000	0.000000	0.000000
O	1.924016	1.924016	0.000000
O	0.000000	1.924016	1.924016
O	1.924016	0.000000	1.924016
Ti	1.909016	1.924016	1.924016
Eu	0.000000	0.000000	3.848032
O	1.924016	1.924016	3.848032
O	0.000000	1.924016	5.772048
O	1.924016	0.000000	5.772048
Ti	1.909016	1.924016	5.772048
Eu	0.000000	3.848032	0.000000
O	1.924016	5.772048	0.000000
O	0.000000	5.772048	1.924016
O	1.924016	3.848032	1.924016
Ti	1.909016	5.772048	1.924016
Eu	0.000000	3.848032	3.848032
O	1.924016	5.772048	3.848032
O	0.000000	5.772048	5.772048
O	1.924016	3.848032	5.772048
Ti	1.909016	5.772048	5.772048
Eu	3.848032	0.000000	0.000000
O	5.772048	1.924016	0.000000
O	3.848032	1.924016	1.924016
O	5.772048	0.000000	1.924016
Ti	5.757048	1.924016	1.924016
Eu	3.848032	0.000000	3.848032
O	5.772048	1.924016	3.848032
O	3.848032	1.924016	5.772048
O	5.772048	0.000000	5.772048
Ti	5.757048	1.924016	5.772048
Eu	3.848032	3.848032	0.000000
O	5.772048	5.772048	0.000000
O	3.848032	5.772048	1.924016
O	5.772048	3.848032	1.924016
Ti	5.757048	5.772048	1.924016
Eu	3.848032	3.848032	3.848032
O	5.772048	5.772048	3.848032
O	3.848032	5.772048	5.772048
O	5.772048	3.848032	5.772048
Ti	5.757048	5.772048	5.772048
