40

Au	0.000000	0.000000	0.000000
Cl	1.957447	1.957447	1.957447
O	0.000000	1.957447	1.957447
O	1.957447	0.000000	1.957447
O	1.957447	1.957447	0.000000
Au	0.000000	0.000000	3.914894
Cl	1.957447	1.957447	5.872342
O	0.000000	1.957447	5.872342
O	1.957447	0.000000	5.872342
O	1.957447	1.957447	3.914894
Au	0.000000	3.914894	0.000000
Cl	1.957447	5.872342	1.957447
O	0.000000	5.872342	1.957447
O	1.957447	3.914894	1.957447
O	1.957447	5.872342	0.000000
Au	0.000000	3.914894	3.914894
Cl	1.957447	5.872342	5.872342
O	0.000000	5.872342	5.872342
O	1.957447	3.914894	5.872342
O	1.957447	5.872342	3.914894
Au	3.914894	0.000000	0.000000
Cl	5.872342	1.957447	1.957447
O	3.914894	1.957447	1.957447
O	5.872342	0.000000	1.957447
O	5.872342	1.957447	0.000000
Au	3.914894	0.000000	3.914894
Cl	5.872342	1.957447	5.872342
O	3.914894	1.957447	5.872342
O	5.872342	0.000000	5.872342
O	5.872342	1.957447	3.914894
Au	3.914894	3.914894	0.000000
Cl	5.872342	5.872342	1.957447
O	3.914894	5.872342	1.957447
O	5.872342	3.914894	1.957447
O	5.872342	5.872342	0.000000
Au	3.914894	3.914894	3.914894
Cl	5.872342	5.872342	5.872342
O	3.914894	5.872342	5.872342
O	5.872342	3.914894	5.872342
O	5.872342	5.872342	3.914894
