112

Cu	0.000000	0.000000	0.000000
Cu	2.082804	-2.083487	-2.083487
Mg	-1.041397	-1.041744	-3.125231
Mg	5.207006	-1.041744	-1.041744
Mg	3.124202	1.041744	-1.041744
Mg	1.041397	1.041744	-3.125231
O	3.163641	-1.001606	-1.001606
O	-1.001968	1.001606	-3.165368
O	1.001968	-1.001606	-3.165368
O	1.080837	1.081881	-1.081881
O	5.167576	1.001606	-1.001606
O	1.080837	3.085094	-3.085094
O	3.084772	3.085094	-1.081881
O	3.084772	1.081881	-3.085094
Cu	4.165604	4.166969	0.000000
Cu	6.248409	2.083482	-2.083487
Mg	3.124207	3.125226	-3.125231
Mg	9.372610	3.125226	-1.041744
Mg	7.289806	5.208713	-1.041744
Mg	5.207001	5.208713	-3.125231
O	7.329245	3.165363	-1.001606
O	3.163637	5.168576	-3.165368
O	5.167572	3.165363	-3.165368
O	5.246441	5.248850	-1.081881
O	9.333180	5.168576	-1.001606
O	5.246441	7.252063	-3.085094
O	7.250376	7.252063	-1.081881
O	7.250376	5.248850	-3.085094
Cu	-4.165604	0.000000	-4.166969
Cu	-2.082800	-2.083487	-6.250457
Mg	-5.207001	-1.041744	-7.292200
Mg	1.041402	-1.041744	-5.208713
Mg	-1.041403	1.041744	-5.208713
Mg	-3.124207	1.041744	-7.292200
O	-1.001963	-1.001606	-5.168576
O	-5.167572	1.001606	-7.332337
O	-3.163637	-1.001606	-7.332337
O	-3.084768	1.081881	-5.248850
O	1.001972	1.001606	-5.168576
O	-3.084768	3.085094	-7.252063
O	-1.080832	3.085094	-5.248850
O	-1.080832	1.081881	-7.252063
Cu	0.000000	4.166969	-4.166969
Cu	2.082804	2.083482	-6.250457
Mg	-1.041397	3.125226	-7.292200
Mg	5.207006	3.125226	-5.208713
Mg	3.124202	5.208713	-5.208713
Mg	1.041397	5.208713	-7.292200
O	3.163641	3.165363	-5.168576
O	-1.001968	5.168576	-7.332337
O	1.001968	3.165363	-7.332337
O	1.080837	5.248850	-5.248850
O	5.167576	5.168576	-5.168576
O	1.080837	7.252063	-7.252063
O	3.084772	7.252063	-5.248850
O	3.084772	5.248850	-7.252063
Cu	4.165604	-4.166969	0.000000
Cu	6.248409	-6.250457	-2.083487
Mg	3.124207	-5.208713	-3.125231
Mg	9.372610	-5.208713	-1.041744
Mg	7.289806	-3.125226	-1.041744
Mg	5.207001	-3.125226	-3.125231
O	7.329245	-5.168576	-1.001606
O	3.163637	-3.165363	-3.165368
O	5.167572	-5.168576	-3.165368
O	5.246441	-3.085089	-1.081881
O	9.333180	-3.165363	-1.001606
O	5.246441	-1.081876	-3.085094
O	7.250376	-1.081876	-1.081881
O	7.250376	-3.085089	-3.085094
Cu	8.331209	0.000000	0.000000
Cu	10.414013	-2.083487	-2.083487
Mg	7.289811	-1.041744	-3.125231
Mg	13.538214	-1.041744	-1.041744
Mg	11.455410	1.041744	-1.041744
Mg	9.372606	1.041744	-3.125231
O	11.494850	-1.001606	-1.001606
O	7.329241	1.001606	-3.165368
O	9.333176	-1.001606	-3.165368
O	9.412045	1.081881	-1.081881
O	13.498785	1.001606	-1.001606
O	9.412045	3.085094	-3.085094
O	11.415980	3.085094	-1.081881
O	11.415980	1.081881	-3.085094
Cu	0.000000	-4.166969	-4.166969
Cu	2.082804	-6.250457	-6.250457
Mg	-1.041397	-5.208713	-7.292200
Mg	5.207006	-5.208713	-5.208713
Mg	3.124202	-3.125226	-5.208713
Mg	1.041397	-3.125226	-7.292200
O	3.163641	-5.168576	-5.168576
O	-1.001968	-3.165363	-7.332337
O	1.001968	-5.168576	-7.332337
O	1.080837	-3.085089	-5.248850
O	5.167576	-3.165363	-5.168576
O	1.080837	-1.081876	-7.252063
O	3.084772	-1.081876	-5.248850
O	3.084772	-3.085089	-7.252063
Cu	4.165604	0.000000	-4.166969
Cu	6.248409	-2.083487	-6.250457
Mg	3.124207	-1.041744	-7.292200
Mg	9.372610	-1.041744	-5.208713
Mg	7.289806	1.041744	-5.208713
Mg	5.207001	1.041744	-7.292200
O	7.329245	-1.001606	-5.168576
O	3.163637	1.001606	-7.332337
O	5.167572	-1.001606	-7.332337
O	5.246441	1.081881	-5.248850
O	9.333180	1.001606	-5.168576
O	5.246441	3.085094	-7.252063
O	7.250376	3.085094	-5.248850
O	7.250376	1.081881	-7.252063
