40

Bi	0.000000	0.000000	0.000000
O	1.957320	1.957320	0.000000
O	0.000000	1.957320	1.957320
O	1.957320	0.000000	1.957320
V	1.957320	1.957320	1.957320
Bi	0.000000	0.000000	3.914642
O	1.957320	1.957320	3.914642
O	0.000000	1.957320	5.871962
O	1.957320	0.000000	5.871962
V	1.957320	1.957320	5.871962
Bi	0.000000	3.914642	0.000000
O	1.957320	5.871962	0.000000
O	0.000000	5.871962	1.957320
O	1.957320	3.914642	1.957320
V	1.957320	5.871962	1.957320
Bi	0.000000	3.914642	3.914642
O	1.957320	5.871962	3.914642
O	0.000000	5.871962	5.871962
O	1.957320	3.914642	5.871962
V	1.957320	5.871962	5.871962
Bi	3.914642	0.000000	0.000000
O	5.871962	1.957320	0.000000
O	3.914642	1.957320	1.957320
O	5.871962	0.000000	1.957320
V	5.871962	1.957320	1.957320
Bi	3.914642	0.000000	3.914642
O	5.871962	1.957320	3.914642
O	3.914642	1.957320	5.871962
O	5.871962	0.000000	5.871962
V	5.871962	1.957320	5.871962
Bi	3.914642	3.914642	0.000000
O	5.871962	5.871962	0.000000
O	3.914642	5.871962	1.957320
O	5.871962	3.914642	1.957320
V	5.871962	5.871962	1.957320
Bi	3.914642	3.914642	3.914642
O	5.871962	5.871962	3.914642
O	3.914642	5.871962	5.871962
O	5.871962	3.914642	5.871962
V	5.871962	5.871962	5.871962
