40

Cu	0.000000	0.000000	0.000000
O	2.232495	2.232495	0.000000
O	2.232495	0.000000	2.232495
O	0.000000	2.232495	2.232495
Pm	2.232495	2.232495	2.232495
Cu	0.000000	0.000000	4.464990
O	2.232495	2.232495	4.464990
O	2.232495	0.000000	6.697486
O	0.000000	2.232495	6.697486
Pm	2.232495	2.232495	6.697486
Cu	0.000000	4.464990	0.000000
O	2.232495	6.697486	0.000000
O	2.232495	4.464990	2.232495
O	0.000000	6.697486	2.232495
Pm	2.232495	6.697486	2.232495
Cu	0.000000	4.464990	4.464990
O	2.232495	6.697486	4.464990
O	2.232495	4.464990	6.697486
O	0.000000	6.697486	6.697486
Pm	2.232495	6.697486	6.697486
Cu	4.464990	0.000000	0.000000
O	6.697486	2.232495	0.000000
O	6.697486	0.000000	2.232495
O	4.464990	2.232495	2.232495
Pm	6.697486	2.232495	2.232495
Cu	4.464990	0.000000	4.464990
O	6.697486	2.232495	4.464990
O	6.697486	0.000000	6.697486
O	4.464990	2.232495	6.697486
Pm	6.697486	2.232495	6.697486
Cu	4.464990	4.464990	0.000000
O	6.697486	6.697486	0.000000
O	6.697486	4.464990	2.232495
O	4.464990	6.697486	2.232495
Pm	6.697486	6.697486	2.232495
Cu	4.464990	4.464990	4.464990
O	6.697486	6.697486	4.464990
O	6.697486	4.464990	6.697486
O	4.464990	6.697486	6.697486
Pm	6.697486	6.697486	6.697486
