112

Ba	0.000000	0.000000	0.000000
Ba	2.682339	-2.683379	-2.683379
K	-1.341169	-1.341689	-4.025068
K	6.705857	-1.341689	-1.341689
K	1.341169	1.341689	-4.025068
K	4.023518	1.341689	-1.341689
O	1.342376	1.343797	-1.343797
O	4.024725	-1.339582	-1.339582
O	-1.339963	1.339582	-4.027176
O	1.339963	-1.339582	-4.027176
O	1.342376	4.022961	-4.022961
O	4.022312	4.022961	-1.343797
O	4.022312	1.343797	-4.022961
O	6.704651	1.339582	-1.339582
Ba	5.364686	5.366756	0.000000
Ba	8.047025	2.683377	-2.683379
K	4.023516	4.025066	-4.025068
K	12.070543	4.025066	-1.341689
K	6.705855	6.708445	-4.025068
K	9.388204	6.708445	-1.341689
O	6.707062	6.710553	-1.343797
O	9.389411	4.027174	-1.339582
O	4.024723	6.706338	-4.027176
O	6.704649	4.027174	-4.027176
O	6.707062	9.389717	-4.022961
O	9.386997	9.389717	-1.343797
O	9.386997	6.710553	-4.022961
O	12.069336	6.706338	-1.339582
Ba	-5.364686	0.000000	-5.366756
Ba	-2.682347	-2.683379	-8.050135
K	-6.705855	-1.341689	-9.391824
K	1.341171	-1.341689	-6.708445
K	-4.023516	1.341689	-9.391824
K	-1.341168	1.341689	-6.708445
O	-4.022310	1.343797	-6.710553
O	-1.339961	-1.339582	-6.706338
O	-6.704649	1.339582	-9.393931
O	-4.024723	-1.339582	-9.393931
O	-4.022310	4.022961	-9.389717
O	-1.342374	4.022961	-6.710553
O	-1.342374	1.343797	-9.389717
O	1.339965	1.339582	-6.706338
Ba	0.000000	5.366756	-5.366756
Ba	2.682339	2.683377	-8.050135
K	-1.341169	4.025066	-9.391824
K	6.705857	4.025066	-6.708445
K	1.341169	6.708445	-9.391824
K	4.023518	6.708445	-6.708445
O	1.342376	6.710553	-6.710553
O	4.024725	4.027174	-6.706338
O	-1.339963	6.706338	-9.393931
O	1.339963	4.027174	-9.393931
O	1.342376	9.389717	-9.389717
O	4.022312	9.389717	-6.710553
O	4.022312	6.710553	-9.389717
O	6.704651	6.706338	-6.706338
Ba	5.364686	-5.366756	0.000000
Ba	8.047025	-8.050135	-2.683379
K	4.023516	-6.708445	-4.025068
K	12.070543	-6.708445	-1.341689
K	6.705855	-4.025066	-4.025068
K	9.388204	-4.025066	-1.341689
O	6.707062	-4.022959	-1.343797
O	9.389411	-6.706338	-1.339582
O	4.024723	-4.027174	-4.027176
O	6.704649	-6.706338	-4.027176
O	6.707062	-1.343795	-4.022961
O	9.386997	-1.343795	-1.343797
O	9.386997	-4.022959	-4.022961
O	12.069336	-4.027174	-1.339582
Ba	10.729372	0.000000	0.000000
Ba	13.411711	-2.683379	-2.683379
K	9.388202	-1.341689	-4.025068
K	17.435229	-1.341689	-1.341689
K	12.070541	1.341689	-4.025068
K	14.752890	1.341689	-1.341689
O	12.071748	1.343797	-1.343797
O	14.754097	-1.339582	-1.339582
O	9.389409	1.339582	-4.027176
O	12.069335	-1.339582	-4.027176
O	12.071748	4.022961	-4.022961
O	14.751683	4.022961	-1.343797
O	14.751683	1.343797	-4.022961
O	17.434022	1.339582	-1.339582
Ba	0.000000	-5.366756	-5.366756
Ba	2.682339	-8.050135	-8.050135
K	-1.341169	-6.708445	-9.391824
K	6.705857	-6.708445	-6.708445
K	1.341169	-4.025066	-9.391824
K	4.023518	-4.025066	-6.708445
O	1.342376	-4.022959	-6.710553
O	4.024725	-6.706338	-6.706338
O	-1.339963	-4.027174	-9.393931
O	1.339963	-6.706338	-9.393931
O	1.342376	-1.343795	-9.389717
O	4.022312	-1.343795	-6.710553
O	4.022312	-4.022959	-9.389717
O	6.704651	-4.027174	-6.706338
Ba	5.364686	0.000000	-5.366756
Ba	8.047025	-2.683379	-8.050135
K	4.023516	-1.341689	-9.391824
K	12.070543	-1.341689	-6.708445
K	6.705855	1.341689	-9.391824
K	9.388204	1.341689	-6.708445
O	6.707062	1.343797	-6.710553
O	9.389411	-1.339582	-6.706338
O	4.024723	1.339582	-9.393931
O	6.704649	-1.339582	-9.393931
O	6.707062	4.022961	-9.389717
O	9.386997	4.022961	-6.710553
O	9.386997	1.343797	-9.389717
O	12.069336	1.339582	-6.706338
