40

Ca	0.000000	0.000000	0.000000
Fe	1.913570	1.913570	1.913570
O	0.000000	1.913570	1.913570
O	1.913570	0.000000	1.913570
O	1.913570	1.913570	0.000000
Ca	0.000000	0.000000	3.827139
Fe	1.913570	1.913570	5.740709
O	0.000000	1.913570	5.740709
O	1.913570	0.000000	5.740709
O	1.913570	1.913570	3.827139
Ca	0.000000	3.827139	0.000000
Fe	1.913570	5.740709	1.913570
O	0.000000	5.740709	1.913570
O	1.913570	3.827139	1.913570
O	1.913570	5.740709	0.000000
Ca	0.000000	3.827139	3.827139
Fe	1.913570	5.740709	5.740709
O	0.000000	5.740709	5.740709
O	1.913570	3.827139	5.740709
O	1.913570	5.740709	3.827139
Ca	3.827139	0.000000	0.000000
Fe	5.740709	1.913570	1.913570
O	3.827139	1.913570	1.913570
O	5.740709	0.000000	1.913570
O	5.740709	1.913570	0.000000
Ca	3.827139	0.000000	3.827139
Fe	5.740709	1.913570	5.740709
O	3.827139	1.913570	5.740709
O	5.740709	0.000000	5.740709
O	5.740709	1.913570	3.827139
Ca	3.827139	3.827139	0.000000
Fe	5.740709	5.740709	1.913570
O	3.827139	5.740709	1.913570
O	5.740709	3.827139	1.913570
O	5.740709	5.740709	0.000000
Ca	3.827139	3.827139	3.827139
Fe	5.740709	5.740709	5.740709
O	3.827139	5.740709	5.740709
O	5.740709	3.827139	5.740709
O	5.740709	5.740709	3.827139
