40

O	0.000000	1.961619	1.961619
O	1.961619	0.000000	1.961619
O	1.961619	1.961619	0.000000
P	0.000000	0.000000	0.000000
Pd	1.961619	1.961619	1.961619
O	0.000000	1.961619	5.884858
O	1.961619	0.000000	5.884858
O	1.961619	1.961619	3.923239
P	0.000000	0.000000	3.923239
Pd	1.961619	1.961619	5.884858
O	0.000000	5.884858	1.961619
O	1.961619	3.923239	1.961619
O	1.961619	5.884858	0.000000
P	0.000000	3.923239	0.000000
Pd	1.961619	5.884858	1.961619
O	0.000000	5.884858	5.884858
O	1.961619	3.923239	5.884858
O	1.961619	5.884858	3.923239
P	0.000000	3.923239	3.923239
Pd	1.961619	5.884858	5.884858
O	3.923239	1.961619	1.961619
O	5.884858	0.000000	1.961619
O	5.884858	1.961619	0.000000
P	3.923239	0.000000	0.000000
Pd	5.884858	1.961619	1.961619
O	3.923239	1.961619	5.884858
O	5.884858	0.000000	5.884858
O	5.884858	1.961619	3.923239
P	3.923239	0.000000	3.923239
Pd	5.884858	1.961619	5.884858
O	3.923239	5.884858	1.961619
O	5.884858	3.923239	1.961619
O	5.884858	5.884858	0.000000
P	3.923239	3.923239	0.000000
Pd	5.884858	5.884858	1.961619
O	3.923239	5.884858	5.884858
O	5.884858	3.923239	5.884858
O	5.884858	5.884858	3.923239
P	3.923239	3.923239	3.923239
Pd	5.884858	5.884858	5.884858
