40

Mn	1.885811	1.885811	1.885811
O	1.885811	1.885811	0.000000
O	1.885811	0.000000	1.885811
O	0.000000	1.885811	1.885811
Ru	0.000000	0.000000	0.000000
Mn	1.885811	1.885811	5.657432
O	1.885811	1.885811	3.771622
O	1.885811	0.000000	5.657432
O	0.000000	1.885811	5.657432
Ru	0.000000	0.000000	3.771622
Mn	1.885811	5.657432	1.885811
O	1.885811	5.657432	0.000000
O	1.885811	3.771622	1.885811
O	0.000000	5.657432	1.885811
Ru	0.000000	3.771622	0.000000
Mn	1.885811	5.657432	5.657432
O	1.885811	5.657432	3.771622
O	1.885811	3.771622	5.657432
O	0.000000	5.657432	5.657432
Ru	0.000000	3.771622	3.771622
Mn	5.657432	1.885811	1.885811
O	5.657432	1.885811	0.000000
O	5.657432	0.000000	1.885811
O	3.771622	1.885811	1.885811
Ru	3.771622	0.000000	0.000000
Mn	5.657432	1.885811	5.657432
O	5.657432	1.885811	3.771622
O	5.657432	0.000000	5.657432
O	3.771622	1.885811	5.657432
Ru	3.771622	0.000000	3.771622
Mn	5.657432	5.657432	1.885811
O	5.657432	5.657432	0.000000
O	5.657432	3.771622	1.885811
O	3.771622	5.657432	1.885811
Ru	3.771622	3.771622	0.000000
Mn	5.657432	5.657432	5.657432
O	5.657432	5.657432	3.771622
O	5.657432	3.771622	5.657432
O	3.771622	5.657432	5.657432
Ru	3.771622	3.771622	3.771622
