112

Au	0.000000	0.000000	0.000000
Au	2.253830	-2.254242	-2.254242
O	3.578004	-0.929179	-0.929179
O	-0.929656	0.929179	-3.579306
O	0.929656	-0.929179	-3.579306
O	1.324174	1.325063	-1.325063
O	5.437316	0.929179	-0.929179
O	1.324174	3.183421	-3.183421
O	3.183486	3.183421	-1.325063
O	3.183486	1.325063	-3.183421
Re	-1.126915	-1.127121	-3.381364
Re	3.380745	1.127121	-1.127121
Re	5.634575	-1.127121	-1.127121
Re	1.126915	1.127121	-3.381364
Au	4.507660	4.508485	0.000000
Au	6.761490	2.254242	-2.254242
O	8.085665	3.579306	-0.929179
O	3.578004	5.437664	-3.579306
O	5.437316	3.579306	-3.579306
O	5.831834	5.833548	-1.325063
O	9.944976	5.437664	-0.929179
O	5.831834	7.691906	-3.183421
O	7.691146	7.691906	-1.325063
O	7.691146	5.833548	-3.183421
Re	3.380745	3.381364	-3.381364
Re	7.888405	5.635606	-1.127121
Re	10.142235	3.381364	-1.127121
Re	5.634575	5.635606	-3.381364
Au	-4.507660	0.000000	-4.508485
Au	-2.253830	-2.254242	-6.762727
O	-0.929656	-0.929179	-5.437664
O	-5.437316	0.929179	-8.087790
O	-3.578004	-0.929179	-8.087790
O	-3.183486	1.325063	-5.833548
O	0.929656	0.929179	-5.437664
O	-3.183486	3.183421	-7.691906
O	-1.324174	3.183421	-5.833548
O	-1.324174	1.325063	-7.691906
Re	-5.634575	-1.127121	-7.889848
Re	-1.126915	1.127121	-5.635606
Re	1.126915	-1.127121	-5.635606
Re	-3.380745	1.127121	-7.889848
Au	0.000000	4.508485	-4.508485
Au	2.253830	2.254242	-6.762727
O	3.578004	3.579306	-5.437664
O	-0.929656	5.437664	-8.087790
O	0.929656	3.579306	-8.087790
O	1.324174	5.833548	-5.833548
O	5.437316	5.437664	-5.437664
O	1.324174	7.691906	-7.691906
O	3.183486	7.691906	-5.833548
O	3.183486	5.833548	-7.691906
Re	-1.126915	3.381364	-7.889848
Re	3.380745	5.635606	-5.635606
Re	5.634575	3.381364	-5.635606
Re	1.126915	5.635606	-7.889848
Au	4.507660	-4.508485	0.000000
Au	6.761490	-6.762727	-2.254242
O	8.085665	-5.437664	-0.929179
O	3.578004	-3.579306	-3.579306
O	5.437316	-5.437664	-3.579306
O	5.831834	-3.183421	-1.325063
O	9.944976	-3.579306	-0.929179
O	5.831834	-1.325063	-3.183421
O	7.691146	-1.325063	-1.325063
O	7.691146	-3.183421	-3.183421
Re	3.380745	-5.635606	-3.381364
Re	7.888405	-3.381364	-1.127121
Re	10.142235	-5.635606	-1.127121
Re	5.634575	-3.381364	-3.381364
Au	9.015320	0.000000	0.000000
Au	11.269150	-2.254242	-2.254242
O	12.593325	-0.929179	-0.929179
O	8.085665	0.929179	-3.579306
O	9.944976	-0.929179	-3.579306
O	10.339495	1.325063	-1.325063
O	14.452636	0.929179	-0.929179
O	10.339495	3.183421	-3.183421
O	12.198806	3.183421	-1.325063
O	12.198806	1.325063	-3.183421
Re	7.888405	-1.127121	-3.381364
Re	12.396065	1.127121	-1.127121
Re	14.649896	-1.127121	-1.127121
Re	10.142235	1.127121	-3.381364
Au	0.000000	-4.508485	-4.508485
Au	2.253830	-6.762727	-6.762727
O	3.578004	-5.437664	-5.437664
O	-0.929656	-3.579306	-8.087790
O	0.929656	-5.437664	-8.087790
O	1.324174	-3.183421	-5.833548
O	5.437316	-3.579306	-5.437664
O	1.324174	-1.325063	-7.691906
O	3.183486	-1.325063	-5.833548
O	3.183486	-3.183421	-7.691906
Re	-1.126915	-5.635606	-7.889848
Re	3.380745	-3.381364	-5.635606
Re	5.634575	-5.635606	-5.635606
Re	1.126915	-3.381364	-7.889848
Au	4.507660	0.000000	-4.508485
Au	6.761490	-2.254242	-6.762727
O	8.085665	-0.929179	-5.437664
O	3.578004	0.929179	-8.087790
O	5.437316	-0.929179	-8.087790
O	5.831834	1.325063	-5.833548
O	9.944976	0.929179	-5.437664
O	5.831834	3.183421	-7.691906
O	7.691146	3.183421	-5.833548
O	7.691146	1.325063	-7.691906
Re	3.380745	-1.127121	-7.889848
Re	7.888405	1.127121	-5.635606
Re	10.142235	-1.127121	-5.635606
Re	5.634575	1.127121	-7.889848
