40

Bi	0.000000	0.000000	0.000000
O	2.090160	2.090160	0.000000
O	0.000000	2.090160	2.090160
O	2.090160	0.000000	2.090160
Zr	2.090160	2.090160	2.090160
Bi	0.000000	0.000000	4.180334
O	2.090160	2.090160	4.180334
O	0.000000	2.090160	6.270494
O	2.090160	0.000000	6.270494
Zr	2.090160	2.090160	6.270494
Bi	0.000000	4.180334	0.000000
O	2.090160	6.270494	0.000000
O	0.000000	6.270494	2.090160
O	2.090160	4.180334	2.090160
Zr	2.090160	6.270494	2.090160
Bi	0.000000	4.180334	4.180334
O	2.090160	6.270494	4.180334
O	0.000000	6.270494	6.270494
O	2.090160	4.180334	6.270494
Zr	2.090160	6.270494	6.270494
Bi	4.180334	0.000000	0.000000
O	6.270494	2.090160	0.000000
O	4.180334	2.090160	2.090160
O	6.270494	0.000000	2.090160
Zr	6.270494	2.090160	2.090160
Bi	4.180334	0.000000	4.180334
O	6.270494	2.090160	4.180334
O	4.180334	2.090160	6.270494
O	6.270494	0.000000	6.270494
Zr	6.270494	2.090160	6.270494
Bi	4.180334	4.180334	0.000000
O	6.270494	6.270494	0.000000
O	4.180334	6.270494	2.090160
O	6.270494	4.180334	2.090160
Zr	6.270494	6.270494	2.090160
Bi	4.180334	4.180334	4.180334
O	6.270494	6.270494	4.180334
O	4.180334	6.270494	6.270494
O	6.270494	4.180334	6.270494
Zr	6.270494	6.270494	6.270494
