40

Bi	0.000000	0.000000	0.000000
O	0.000000	2.105236	2.105236
O	2.105236	0.000000	2.105236
O	2.105236	2.105236	0.000000
Zr	2.105236	2.105236	2.105236
Bi	0.000000	0.000000	4.210473
O	0.000000	2.105236	6.315709
O	2.105236	0.000000	6.315709
O	2.105236	2.105236	4.210473
Zr	2.105236	2.105236	6.315709
Bi	0.000000	4.210473	0.000000
O	0.000000	6.315709	2.105236
O	2.105236	4.210473	2.105236
O	2.105236	6.315709	0.000000
Zr	2.105236	6.315709	2.105236
Bi	0.000000	4.210473	4.210473
O	0.000000	6.315709	6.315709
O	2.105236	4.210473	6.315709
O	2.105236	6.315709	4.210473
Zr	2.105236	6.315709	6.315709
Bi	4.210473	0.000000	0.000000
O	4.210473	2.105236	2.105236
O	6.315709	0.000000	2.105236
O	6.315709	2.105236	0.000000
Zr	6.315709	2.105236	2.105236
Bi	4.210473	0.000000	4.210473
O	4.210473	2.105236	6.315709
O	6.315709	0.000000	6.315709
O	6.315709	2.105236	4.210473
Zr	6.315709	2.105236	6.315709
Bi	4.210473	4.210473	0.000000
O	4.210473	6.315709	2.105236
O	6.315709	4.210473	2.105236
O	6.315709	6.315709	0.000000
Zr	6.315709	6.315709	2.105236
Bi	4.210473	4.210473	4.210473
O	4.210473	6.315709	6.315709
O	6.315709	4.210473	6.315709
O	6.315709	6.315709	4.210473
Zr	6.315709	6.315709	6.315709
