112

Fe	0.000000	0.000000	0.000000
Fe	2.264327	-2.264750	-2.264750
O	3.351792	-1.176726	-1.176726
O	-1.176862	1.176726	-3.352775
O	1.176862	-1.176726	-3.352775
O	1.087465	1.088025	-1.088025
O	5.705516	1.176726	-1.176726
O	1.087465	3.441476	-3.441476
O	3.441189	3.441476	-1.088025
O	3.441189	1.088025	-3.441476
Yb	-1.132164	-1.132375	-3.397126
Yb	3.396491	1.132375	-1.132375
Yb	5.660818	-1.132375	-1.132375
Yb	1.132164	1.132375	-3.397126
Fe	4.528654	4.529501	0.000000
Fe	6.792981	2.264750	-2.264750
O	7.880447	3.352775	-1.176726
O	3.351792	5.706226	-3.352775
O	5.705516	3.352775	-3.352775
O	5.616119	5.617525	-1.088025
O	10.234171	5.706226	-1.176726
O	5.616119	7.970977	-3.441476
O	7.969844	7.970977	-1.088025
O	7.969844	5.617525	-3.441476
Yb	3.396491	3.397126	-3.397126
Yb	7.925145	5.661876	-1.132375
Yb	10.189472	3.397126	-1.132375
Yb	5.660818	5.661876	-3.397126
Fe	-4.528654	0.000000	-4.529501
Fe	-2.264327	-2.264750	-6.794251
O	-1.176862	-1.176726	-5.706226
O	-5.705516	1.176726	-7.882276
O	-3.351792	-1.176726	-7.882276
O	-3.441189	1.088025	-5.617525
O	1.176862	1.176726	-5.706226
O	-3.441189	3.441476	-7.970977
O	-1.087465	3.441476	-5.617525
O	-1.087465	1.088025	-7.970977
Yb	-5.660818	-1.132375	-7.926626
Yb	-1.132164	1.132375	-5.661876
Yb	1.132164	-1.132375	-5.661876
Yb	-3.396491	1.132375	-7.926626
Fe	0.000000	4.529501	-4.529501
Fe	2.264327	2.264750	-6.794251
O	3.351792	3.352775	-5.706226
O	-1.176862	5.706226	-7.882276
O	1.176862	3.352775	-7.882276
O	1.087465	5.617525	-5.617525
O	5.705516	5.706226	-5.706226
O	1.087465	7.970977	-7.970977
O	3.441189	7.970977	-5.617525
O	3.441189	5.617525	-7.970977
Yb	-1.132164	3.397126	-7.926626
Yb	3.396491	5.661876	-5.661876
Yb	5.660818	3.397126	-5.661876
Yb	1.132164	5.661876	-7.926626
Fe	4.528654	-4.529501	0.000000
Fe	6.792981	-6.794251	-2.264750
O	7.880447	-5.706226	-1.176726
O	3.351792	-3.352775	-3.352775
O	5.705516	-5.706226	-3.352775
O	5.616119	-3.441476	-1.088025
O	10.234171	-3.352775	-1.176726
O	5.616119	-1.088025	-3.441476
O	7.969844	-1.088025	-1.088025
O	7.969844	-3.441476	-3.441476
Yb	3.396491	-5.661876	-3.397126
Yb	7.925145	-3.397126	-1.132375
Yb	10.189472	-5.661876	-1.132375
Yb	5.660818	-3.397126	-3.397126
Fe	9.057309	0.000000	0.000000
Fe	11.321636	-2.264750	-2.264750
O	12.409101	-1.176726	-1.176726
O	7.880447	1.176726	-3.352775
O	10.234171	-1.176726	-3.352775
O	10.144774	1.088025	-1.088025
O	14.762825	1.176726	-1.176726
O	10.144774	3.441476	-3.441476
O	12.498498	3.441476	-1.088025
O	12.498498	1.088025	-3.441476
Yb	7.925145	-1.132375	-3.397126
Yb	12.453799	1.132375	-1.132375
Yb	14.718127	-1.132375	-1.132375
Yb	10.189472	1.132375	-3.397126
Fe	0.000000	-4.529501	-4.529501
Fe	2.264327	-6.794251	-6.794251
O	3.351792	-5.706226	-5.706226
O	-1.176862	-3.352775	-7.882276
O	1.176862	-5.706226	-7.882276
O	1.087465	-3.441476	-5.617525
O	5.705516	-3.352775	-5.706226
O	1.087465	-1.088025	-7.970977
O	3.441189	-1.088025	-5.617525
O	3.441189	-3.441476	-7.970977
Yb	-1.132164	-5.661876	-7.926626
Yb	3.396491	-3.397126	-5.661876
Yb	5.660818	-5.661876	-5.661876
Yb	1.132164	-3.397126	-7.926626
Fe	4.528654	0.000000	-4.529501
Fe	6.792981	-2.264750	-6.794251
O	7.880447	-1.176726	-5.706226
O	3.351792	1.176726	-7.882276
O	5.705516	-1.176726	-7.882276
O	5.616119	1.088025	-5.617525
O	10.234171	1.176726	-5.706226
O	5.616119	3.441476	-7.970977
O	7.969844	3.441476	-5.617525
O	7.969844	1.088025	-7.970977
Yb	3.396491	-1.132375	-7.926626
Yb	7.925145	1.132375	-5.661876
Yb	10.189472	-1.132375	-5.661876
Yb	5.660818	1.132375	-7.926626
