112

Co	0.000000	0.000000	0.000000
Co	2.328206	-2.328543	-2.328543
O	-1.119843	1.119623	-3.537463
O	3.536580	-1.119623	-1.119623
O	1.119843	-1.119623	-3.537463
O	1.208364	1.208920	-1.208920
O	5.776265	1.119623	-1.119623
O	1.208364	3.448176	-3.448176
O	3.448059	3.448176	-1.208920
O	3.448059	1.208920	-3.448176
Tb	-1.164103	-1.164272	-3.492815
Tb	1.164103	1.164272	-3.492815
Tb	5.820525	-1.164272	-1.164272
Tb	3.492319	1.164272	-1.164272
Co	4.656422	4.657091	0.000000
Co	6.984628	2.328548	-2.328543
O	3.536580	5.776714	-3.537463
O	8.193002	3.537468	-1.119623
O	5.776265	3.537468	-3.537463
O	5.864786	5.866011	-1.208920
O	10.432687	5.776714	-1.119623
O	5.864786	8.105267	-3.448176
O	8.104481	8.105267	-1.208920
O	8.104481	5.866011	-3.448176
Tb	3.492319	3.492820	-3.492815
Tb	5.820525	5.821363	-3.492815
Tb	10.476948	3.492820	-1.164272
Tb	8.148741	5.821363	-1.164272
Co	-4.656422	0.000000	-4.657091
Co	-2.328216	-2.328543	-6.985634
O	-5.776265	1.119623	-8.194555
O	-1.119843	-1.119623	-5.776714
O	-3.536580	-1.119623	-8.194555
O	-3.448059	1.208920	-5.866011
O	1.119843	1.119623	-5.776714
O	-3.448059	3.448176	-8.105267
O	-1.208363	3.448176	-5.866011
O	-1.208363	1.208920	-8.105267
Tb	-5.820525	-1.164272	-8.149906
Tb	-3.492319	1.164272	-8.149906
Tb	1.164103	-1.164272	-5.821363
Tb	-1.164103	1.164272	-5.821363
Co	0.000000	4.657091	-4.657091
Co	2.328206	2.328548	-6.985634
O	-1.119843	5.776714	-8.194555
O	3.536580	3.537468	-5.776714
O	1.119843	3.537468	-8.194555
O	1.208364	5.866011	-5.866011
O	5.776265	5.776714	-5.776714
O	1.208364	8.105267	-8.105267
O	3.448059	8.105267	-5.866011
O	3.448059	5.866011	-8.105267
Tb	-1.164103	3.492820	-8.149906
Tb	1.164103	5.821363	-8.149906
Tb	5.820525	3.492820	-5.821363
Tb	3.492319	5.821363	-5.821363
Co	4.656422	-4.657091	0.000000
Co	6.984628	-6.985634	-2.328543
O	3.536580	-3.537468	-3.537463
O	8.193002	-5.776714	-1.119623
O	5.776265	-5.776714	-3.537463
O	5.864786	-3.448171	-1.208920
O	10.432687	-3.537468	-1.119623
O	5.864786	-1.208915	-3.448176
O	8.104481	-1.208915	-1.208920
O	8.104481	-3.448171	-3.448176
Tb	3.492319	-5.821363	-3.492815
Tb	5.820525	-3.492820	-3.492815
Tb	10.476948	-5.821363	-1.164272
Tb	8.148741	-3.492820	-1.164272
Co	9.312845	0.000000	0.000000
Co	11.641051	-2.328543	-2.328543
O	8.193002	1.119623	-3.537463
O	12.849424	-1.119623	-1.119623
O	10.432687	-1.119623	-3.537463
O	10.521208	1.208920	-1.208920
O	15.089109	1.119623	-1.119623
O	10.521208	3.448176	-3.448176
O	12.760903	3.448176	-1.208920
O	12.760903	1.208920	-3.448176
Tb	8.148741	-1.164272	-3.492815
Tb	10.476948	1.164272	-3.492815
Tb	15.133370	-1.164272	-1.164272
Tb	12.805164	1.164272	-1.164272
Co	0.000000	-4.657091	-4.657091
Co	2.328206	-6.985634	-6.985634
O	-1.119843	-3.537468	-8.194555
O	3.536580	-5.776714	-5.776714
O	1.119843	-5.776714	-8.194555
O	1.208364	-3.448171	-5.866011
O	5.776265	-3.537468	-5.776714
O	1.208364	-1.208915	-8.105267
O	3.448059	-1.208915	-5.866011
O	3.448059	-3.448171	-8.105267
Tb	-1.164103	-5.821363	-8.149906
Tb	1.164103	-3.492820	-8.149906
Tb	5.820525	-5.821363	-5.821363
Tb	3.492319	-3.492820	-5.821363
Co	4.656422	0.000000	-4.657091
Co	6.984628	-2.328543	-6.985634
O	3.536580	1.119623	-8.194555
O	8.193002	-1.119623	-5.776714
O	5.776265	-1.119623	-8.194555
O	5.864786	1.208920	-5.866011
O	10.432687	1.119623	-5.776714
O	5.864786	3.448176	-8.105267
O	8.104481	3.448176	-5.866011
O	8.104481	1.208920	-8.105267
Tb	3.492319	-1.164272	-8.149906
Tb	5.820525	1.164272	-8.149906
Tb	10.476948	-1.164272	-5.821363
Tb	8.148741	1.164272	-5.821363
