112

Ac	0.000000	0.000000	0.000000
Ac	2.552705	-2.553668	-2.553668
O	3.983299	-1.122106	-1.122106
O	-1.122112	1.122106	-3.985229
O	1.122112	-1.122106	-3.985229
O	1.430593	1.431562	-1.431562
O	6.227522	1.122106	-1.122106
O	1.430593	3.675774	-3.675774
O	3.674817	3.675774	-1.431562
O	3.674817	1.431562	-3.675774
Pa	-1.276353	-1.276834	-3.830502
Pa	3.829058	1.276834	-1.276834
Pa	6.381763	-1.276834	-1.276834
Pa	1.276353	1.276834	-3.830502
Ac	5.105410	5.107336	0.000000
Ac	7.658116	2.553668	-2.553668
O	9.088709	3.985229	-1.122106
O	3.983299	6.229442	-3.985229
O	6.227522	3.985229	-3.985229
O	6.536004	6.538897	-1.431562
O	11.332932	6.229442	-1.122106
O	6.536004	8.783110	-3.675774
O	8.780227	8.783110	-1.431562
O	8.780227	6.538897	-3.675774
Pa	3.829058	3.830502	-3.830502
Pa	8.934468	6.384170	-1.276834
Pa	11.487173	3.830502	-1.276834
Pa	6.381763	6.384170	-3.830502
Ac	-5.105410	0.000000	-5.107336
Ac	-2.552705	-2.553668	-7.661004
O	-1.122112	-1.122106	-6.229442
O	-6.227522	1.122106	-9.092565
O	-3.983299	-1.122106	-9.092565
O	-3.674817	1.431562	-6.538897
O	1.122112	1.122106	-6.229442
O	-3.674817	3.675774	-8.783110
O	-1.430593	3.675774	-6.538897
O	-1.430593	1.431562	-8.783110
Pa	-6.381763	-1.276834	-8.937838
Pa	-1.276353	1.276834	-6.384170
Pa	1.276353	-1.276834	-6.384170
Pa	-3.829058	1.276834	-8.937838
Ac	0.000000	5.107336	-5.107336
Ac	2.552705	2.553668	-7.661004
O	3.983299	3.985229	-6.229442
O	-1.122112	6.229442	-9.092565
O	1.122112	3.985229	-9.092565
O	1.430593	6.538897	-6.538897
O	6.227522	6.229442	-6.229442
O	1.430593	8.783110	-8.783110
O	3.674817	8.783110	-6.538897
O	3.674817	6.538897	-8.783110
Pa	-1.276353	3.830502	-8.937838
Pa	3.829058	6.384170	-6.384170
Pa	6.381763	3.830502	-6.384170
Pa	1.276353	6.384170	-8.937838
Ac	5.105410	-5.107336	0.000000
Ac	7.658116	-7.661004	-2.553668
O	9.088709	-6.229442	-1.122106
O	3.983299	-3.985229	-3.985229
O	6.227522	-6.229442	-3.985229
O	6.536004	-3.675774	-1.431562
O	11.332932	-3.985229	-1.122106
O	6.536004	-1.431562	-3.675774
O	8.780227	-1.431562	-1.431562
O	8.780227	-3.675774	-3.675774
Pa	3.829058	-6.384170	-3.830502
Pa	8.934468	-3.830502	-1.276834
Pa	11.487173	-6.384170	-1.276834
Pa	6.381763	-3.830502	-3.830502
Ac	10.210821	0.000000	0.000000
Ac	12.763526	-2.553668	-2.553668
O	14.194119	-1.122106	-1.122106
O	9.088709	1.122106	-3.985229
O	11.332932	-1.122106	-3.985229
O	11.641414	1.431562	-1.431562
O	16.438343	1.122106	-1.122106
O	11.641414	3.675774	-3.675774
O	13.885638	3.675774	-1.431562
O	13.885638	1.431562	-3.675774
Pa	8.934468	-1.276834	-3.830502
Pa	14.039879	1.276834	-1.276834
Pa	16.592584	-1.276834	-1.276834
Pa	11.487173	1.276834	-3.830502
Ac	0.000000	-5.107336	-5.107336
Ac	2.552705	-7.661004	-7.661004
O	3.983299	-6.229442	-6.229442
O	-1.122112	-3.985229	-9.092565
O	1.122112	-6.229442	-9.092565
O	1.430593	-3.675774	-6.538897
O	6.227522	-3.985229	-6.229442
O	1.430593	-1.431562	-8.783110
O	3.674817	-1.431562	-6.538897
O	3.674817	-3.675774	-8.783110
Pa	-1.276353	-6.384170	-8.937838
Pa	3.829058	-3.830502	-6.384170
Pa	6.381763	-6.384170	-6.384170
Pa	1.276353	-3.830502	-8.937838
Ac	5.105410	0.000000	-5.107336
Ac	7.658116	-2.553668	-7.661004
O	9.088709	-1.122106	-6.229442
O	3.983299	1.122106	-9.092565
O	6.227522	-1.122106	-9.092565
O	6.536004	1.431562	-6.538897
O	11.332932	1.122106	-6.229442
O	6.536004	3.675774	-8.783110
O	8.780227	3.675774	-6.538897
O	8.780227	1.431562	-8.783110
Pa	3.829058	-1.276834	-8.937838
Pa	8.934468	1.276834	-6.384170
Pa	11.487173	-1.276834	-6.384170
Pa	6.381763	1.276834	-8.937838
