112

Be	0.000000	0.000000	0.000000
Be	2.266833	-2.264275	-2.264275
O	1.001535	0.994898	-0.994898
O	3.268362	-1.269377	-1.269377
O	-1.265298	1.269377	-3.259173
O	1.265298	-1.269377	-3.259173
O	1.001535	3.533647	-3.533647
O	3.532132	3.533647	-0.994898
O	3.532132	0.994898	-3.533647
O	1.265298	-3.259173	-1.269377
Pa	-1.133413	-1.132135	-3.396410
Pa	3.400247	1.132135	-1.132135
Pa	1.133413	1.132135	-3.396410
Pa	5.667080	-1.132135	-1.132135
Be	4.533664	4.528547	0.000000
Be	6.800497	2.264271	-2.264275
O	5.535199	5.523445	-0.994898
O	7.802026	3.259169	-1.269377
O	3.268366	5.797924	-3.259173
O	5.798962	3.259169	-3.259173
O	5.535199	8.062194	-3.533647
O	8.065796	8.062194	-0.994898
O	8.065796	5.523445	-3.533647
O	5.798962	1.269373	-1.269377
Pa	3.400251	3.396412	-3.396410
Pa	7.933911	5.660681	-1.132135
Pa	5.667078	5.660681	-3.396410
Pa	10.200744	3.396412	-1.132135
Be	-4.533664	0.000000	-4.528547
Be	-2.266831	-2.264275	-6.792822
O	-3.532129	0.994898	-5.523445
O	-1.265302	-1.269377	-5.797924
O	-5.798962	1.269377	-7.787720
O	-3.268366	-1.269377	-7.787720
O	-3.532129	3.533647	-8.062194
O	-1.001533	3.533647	-5.523445
O	-1.001533	0.994898	-8.062194
O	-3.268366	-3.259173	-5.797924
Pa	-5.667078	-1.132135	-7.924957
Pa	-1.133418	1.132135	-5.660681
Pa	-3.400251	1.132135	-7.924957
Pa	1.133416	-1.132135	-5.660681
Be	0.000000	4.528547	-4.528547
Be	2.266833	2.264271	-6.792822
O	1.001535	5.523445	-5.523445
O	3.268362	3.259169	-5.797924
O	-1.265298	5.797924	-7.787720
O	1.265298	3.259169	-7.787720
O	1.001535	8.062194	-8.062194
O	3.532132	8.062194	-5.523445
O	3.532132	5.523445	-8.062194
O	1.265298	1.269373	-5.797924
Pa	-1.133413	3.396412	-7.924957
Pa	3.400247	5.660681	-5.660681
Pa	1.133413	5.660681	-7.924957
Pa	5.667080	3.396412	-5.660681
Be	4.533664	-4.528547	0.000000
Be	6.800497	-6.792822	-2.264275
O	5.535199	-3.533649	-0.994898
O	7.802026	-5.797924	-1.269377
O	3.268366	-3.259169	-3.259173
O	5.798962	-5.797924	-3.259173
O	5.535199	-0.994900	-3.533647
O	8.065796	-0.994900	-0.994898
O	8.065796	-3.533649	-3.533647
O	5.798962	-7.787720	-1.269377
Pa	3.400251	-5.660681	-3.396410
Pa	7.933911	-3.396412	-1.132135
Pa	5.667078	-3.396412	-3.396410
Pa	10.200744	-5.660681	-1.132135
Be	9.067328	0.000000	0.000000
Be	11.334162	-2.264275	-2.264275
O	10.068863	0.994898	-0.994898
O	12.335690	-1.269377	-1.269377
O	7.802030	1.269377	-3.259173
O	10.332627	-1.269377	-3.259173
O	10.068863	3.533647	-3.533647
O	12.599460	3.533647	-0.994898
O	12.599460	0.994898	-3.533647
O	10.332627	-3.259173	-1.269377
Pa	7.933915	-1.132135	-3.396410
Pa	12.467575	1.132135	-1.132135
Pa	10.200742	1.132135	-3.396410
Pa	14.734408	-1.132135	-1.132135
Be	0.000000	-4.528547	-4.528547
Be	2.266833	-6.792822	-6.792822
O	1.001535	-3.533649	-5.523445
O	3.268362	-5.797924	-5.797924
O	-1.265298	-3.259169	-7.787720
O	1.265298	-5.797924	-7.787720
O	1.001535	-0.994900	-8.062194
O	3.532132	-0.994900	-5.523445
O	3.532132	-3.533649	-8.062194
O	1.265298	-7.787720	-5.797924
Pa	-1.133413	-5.660681	-7.924957
Pa	3.400247	-3.396412	-5.660681
Pa	1.133413	-3.396412	-7.924957
Pa	5.667080	-5.660681	-5.660681
Be	4.533664	0.000000	-4.528547
Be	6.800497	-2.264275	-6.792822
O	5.535199	0.994898	-5.523445
O	7.802026	-1.269377	-5.797924
O	3.268366	1.269377	-7.787720
O	5.798962	-1.269377	-7.787720
O	5.535199	3.533647	-8.062194
O	8.065796	3.533647	-5.523445
O	8.065796	0.994898	-8.062194
O	5.798962	-3.259173	-5.797924
Pa	3.400251	-1.132135	-7.924957
Pa	7.933911	1.132135	-5.660681
Pa	5.667078	1.132135	-7.924957
Pa	10.200744	-1.132135	-5.660681
