112

K	0.000000	0.000000	0.000000
K	2.308731	-2.309338	-2.309338
O	-0.910688	0.910545	-3.708132
O	3.706773	-0.910545	-0.910545
O	0.910688	-0.910545	-3.708132
O	1.398042	1.398794	-1.398794
O	5.528140	0.910545	-0.910545
O	1.398042	3.219883	-3.219883
O	3.219409	3.219883	-1.398794
O	3.219409	1.398794	-3.219883
Pd	-1.154360	-1.154669	-3.464007
Pd	1.154360	1.154669	-3.464007
Pd	3.463091	1.154669	-1.154669
Pd	5.771822	-1.154669	-1.154669
K	4.617455	4.618679	0.000000
K	6.926185	2.309341	-2.309338
O	3.706766	5.529224	-3.708132
O	8.324228	3.708135	-0.910545
O	5.528143	3.708135	-3.708132
O	6.015497	6.017473	-1.398794
O	10.145595	5.529224	-0.910545
O	6.015497	7.838562	-3.219883
O	7.836864	7.838562	-1.398794
O	7.836864	6.017473	-3.219883
Pd	3.463094	3.464010	-3.464007
Pd	5.771815	5.773348	-3.464007
Pd	8.080546	5.773348	-1.154669
Pd	10.389276	3.464010	-1.154669
K	-4.617455	0.000000	-4.618679
K	-2.308724	-2.309338	-6.928018
O	-5.528143	0.910545	-8.326811
O	-0.910682	-0.910545	-5.529224
O	-3.706766	-0.910545	-8.326811
O	-3.219413	1.398794	-6.017473
O	0.910685	0.910545	-5.529224
O	-3.219413	3.219883	-7.838562
O	-1.398046	3.219883	-6.017473
O	-1.398046	1.398794	-7.838562
Pd	-5.771815	-1.154669	-8.082687
Pd	-3.463094	1.154669	-8.082687
Pd	-1.154364	1.154669	-5.773348
Pd	1.154367	-1.154669	-5.773348
K	0.000000	4.618679	-4.618679
K	2.308731	2.309341	-6.928018
O	-0.910688	5.529224	-8.326811
O	3.706773	3.708135	-5.529224
O	0.910688	3.708135	-8.326811
O	1.398042	6.017473	-6.017473
O	5.528140	5.529224	-5.529224
O	1.398042	7.838562	-7.838562
O	3.219409	7.838562	-6.017473
O	3.219409	6.017473	-7.838562
Pd	-1.154360	3.464010	-8.082687
Pd	1.154360	5.773348	-8.082687
Pd	3.463091	5.773348	-5.773348
Pd	5.771822	3.464010	-5.773348
K	4.617455	-4.618679	0.000000
K	6.926185	-6.928018	-2.309338
O	3.706766	-3.708135	-3.708132
O	8.324228	-5.529224	-0.910545
O	5.528143	-5.529224	-3.708132
O	6.015497	-3.219886	-1.398794
O	10.145595	-3.708135	-0.910545
O	6.015497	-1.398796	-3.219883
O	7.836864	-1.398796	-1.398794
O	7.836864	-3.219886	-3.219883
Pd	3.463094	-5.773348	-3.464007
Pd	5.771815	-3.464010	-3.464007
Pd	8.080546	-3.464010	-1.154669
Pd	10.389276	-5.773348	-1.154669
K	9.234909	0.000000	0.000000
K	11.543640	-2.309338	-2.309338
O	8.324221	0.910545	-3.708132
O	12.941682	-0.910545	-0.910545
O	10.145598	-0.910545	-3.708132
O	10.632952	1.398794	-1.398794
O	14.763049	0.910545	-0.910545
O	10.632952	3.219883	-3.219883
O	12.454319	3.219883	-1.398794
O	12.454319	1.398794	-3.219883
Pd	8.080549	-1.154669	-3.464007
Pd	10.389270	1.154669	-3.464007
Pd	12.698000	1.154669	-1.154669
Pd	15.006731	-1.154669	-1.154669
K	0.000000	-4.618679	-4.618679
K	2.308731	-6.928018	-6.928018
O	-0.910688	-3.708135	-8.326811
O	3.706773	-5.529224	-5.529224
O	0.910688	-5.529224	-8.326811
O	1.398042	-3.219886	-6.017473
O	5.528140	-3.708135	-5.529224
O	1.398042	-1.398796	-7.838562
O	3.219409	-1.398796	-6.017473
O	3.219409	-3.219886	-7.838562
Pd	-1.154360	-5.773348	-8.082687
Pd	1.154360	-3.464010	-8.082687
Pd	3.463091	-3.464010	-5.773348
Pd	5.771822	-5.773348	-5.773348
K	4.617455	0.000000	-4.618679
K	6.926185	-2.309338	-6.928018
O	3.706766	0.910545	-8.326811
O	8.324228	-0.910545	-5.529224
O	5.528143	-0.910545	-8.326811
O	6.015497	1.398794	-6.017473
O	10.145595	0.910545	-5.529224
O	6.015497	3.219883	-7.838562
O	7.836864	3.219883	-6.017473
O	7.836864	1.398794	-7.838562
Pd	3.463094	-1.154669	-8.082687
Pd	5.771815	1.154669	-8.082687
Pd	8.080546	1.154669	-5.773348
Pd	10.389276	-1.154669	-5.773348
