40

O	0.000000	2.053377	2.053377
O	2.053377	0.000000	2.053377
O	2.053377	2.053377	0.000000
Rh	0.000000	0.000000	0.000000
Sn	2.053377	2.053377	2.053377
O	0.000000	2.053377	6.160132
O	2.053377	0.000000	6.160132
O	2.053377	2.053377	4.106755
Rh	0.000000	0.000000	4.106755
Sn	2.053377	2.053377	6.160132
O	0.000000	6.160132	2.053377
O	2.053377	4.106755	2.053377
O	2.053377	6.160132	0.000000
Rh	0.000000	4.106755	0.000000
Sn	2.053377	6.160132	2.053377
O	0.000000	6.160132	6.160132
O	2.053377	4.106755	6.160132
O	2.053377	6.160132	4.106755
Rh	0.000000	4.106755	4.106755
Sn	2.053377	6.160132	6.160132
O	4.106755	2.053377	2.053377
O	6.160132	0.000000	2.053377
O	6.160132	2.053377	0.000000
Rh	4.106755	0.000000	0.000000
Sn	6.160132	2.053377	2.053377
O	4.106755	2.053377	6.160132
O	6.160132	0.000000	6.160132
O	6.160132	2.053377	4.106755
Rh	4.106755	0.000000	4.106755
Sn	6.160132	2.053377	6.160132
O	4.106755	6.160132	2.053377
O	6.160132	4.106755	2.053377
O	6.160132	6.160132	0.000000
Rh	4.106755	4.106755	0.000000
Sn	6.160132	6.160132	2.053377
O	4.106755	6.160132	6.160132
O	6.160132	4.106755	6.160132
O	6.160132	6.160132	4.106755
Rh	4.106755	4.106755	4.106755
Sn	6.160132	6.160132	6.160132
