40

O	1.990241	1.990241	0.000000
O	1.990241	0.000000	1.990241
O	0.000000	1.990241	1.990241
Rh	1.990241	1.990241	1.990241
Sn	0.000000	0.000000	0.000000
O	1.990241	1.990241	3.980482
O	1.990241	0.000000	5.970722
O	0.000000	1.990241	5.970722
Rh	1.990241	1.990241	5.970722
Sn	0.000000	0.000000	3.980482
O	1.990241	5.970722	0.000000
O	1.990241	3.980482	1.990241
O	0.000000	5.970722	1.990241
Rh	1.990241	5.970722	1.990241
Sn	0.000000	3.980482	0.000000
O	1.990241	5.970722	3.980482
O	1.990241	3.980482	5.970722
O	0.000000	5.970722	5.970722
Rh	1.990241	5.970722	5.970722
Sn	0.000000	3.980482	3.980482
O	5.970722	1.990241	0.000000
O	5.970722	0.000000	1.990241
O	3.980482	1.990241	1.990241
Rh	5.970722	1.990241	1.990241
Sn	3.980482	0.000000	0.000000
O	5.970722	1.990241	3.980482
O	5.970722	0.000000	5.970722
O	3.980482	1.990241	5.970722
Rh	5.970722	1.990241	5.970722
Sn	3.980482	0.000000	3.980482
O	5.970722	5.970722	0.000000
O	5.970722	3.980482	1.990241
O	3.980482	5.970722	1.990241
Rh	5.970722	5.970722	1.990241
Sn	3.980482	3.980482	0.000000
O	5.970722	5.970722	3.980482
O	5.970722	3.980482	5.970722
O	3.980482	5.970722	5.970722
Rh	5.970722	5.970722	5.970722
Sn	3.980482	3.980482	3.980482
