40

Cr	0.000000	0.000000	0.000000
La	2.235540	2.235540	2.235540
O	2.235540	2.235540	0.000000
O	2.235540	0.000000	2.235540
O	0.000000	2.235540	2.235540
Cr	0.000000	0.000000	4.471079
La	2.235540	2.235540	6.706619
O	2.235540	2.235540	4.471079
O	2.235540	0.000000	6.706619
O	0.000000	2.235540	6.706619
Cr	0.000000	4.471079	0.000000
La	2.235540	6.706619	2.235540
O	2.235540	6.706619	0.000000
O	2.235540	4.471079	2.235540
O	0.000000	6.706619	2.235540
Cr	0.000000	4.471079	4.471079
La	2.235540	6.706619	6.706619
O	2.235540	6.706619	4.471079
O	2.235540	4.471079	6.706619
O	0.000000	6.706619	6.706619
Cr	4.471079	0.000000	0.000000
La	6.706619	2.235540	2.235540
O	6.706619	2.235540	0.000000
O	6.706619	0.000000	2.235540
O	4.471079	2.235540	2.235540
Cr	4.471079	0.000000	4.471079
La	6.706619	2.235540	6.706619
O	6.706619	2.235540	4.471079
O	6.706619	0.000000	6.706619
O	4.471079	2.235540	6.706619
Cr	4.471079	4.471079	0.000000
La	6.706619	6.706619	2.235540
O	6.706619	6.706619	0.000000
O	6.706619	4.471079	2.235540
O	4.471079	6.706619	2.235540
Cr	4.471079	4.471079	4.471079
La	6.706619	6.706619	6.706619
O	6.706619	6.706619	4.471079
O	6.706619	4.471079	6.706619
O	4.471079	6.706619	6.706619
