40

Cd	2.030279	2.030279	2.030279
O	2.030279	2.030279	0.000000
O	0.000000	2.030279	2.030279
O	2.030279	0.000000	2.030279
W	0.000000	0.000000	0.000000
Cd	2.030279	2.030279	6.090830
O	2.030279	2.030279	4.060550
O	0.000000	2.030279	6.090830
O	2.030279	0.000000	6.090830
W	0.000000	0.000000	4.060550
Cd	2.030279	6.090830	2.030279
O	2.030279	6.090830	0.000000
O	0.000000	6.090830	2.030279
O	2.030279	4.060550	2.030279
W	0.000000	4.060550	0.000000
Cd	2.030279	6.090830	6.090830
O	2.030279	6.090830	4.060550
O	0.000000	6.090830	6.090830
O	2.030279	4.060550	6.090830
W	0.000000	4.060550	4.060550
Cd	6.090830	2.030279	2.030279
O	6.090830	2.030279	0.000000
O	4.060550	2.030279	2.030279
O	6.090830	0.000000	2.030279
W	4.060550	0.000000	0.000000
Cd	6.090830	2.030279	6.090830
O	6.090830	2.030279	4.060550
O	4.060550	2.030279	6.090830
O	6.090830	0.000000	6.090830
W	4.060550	0.000000	4.060550
Cd	6.090830	6.090830	2.030279
O	6.090830	6.090830	0.000000
O	4.060550	6.090830	2.030279
O	6.090830	4.060550	2.030279
W	4.060550	4.060550	0.000000
Cd	6.090830	6.090830	6.090830
O	6.090830	6.090830	4.060550
O	4.060550	6.090830	6.090830
O	6.090830	4.060550	6.090830
W	4.060550	4.060550	4.060550
