40

I	2.071792	2.071792	2.071792
Na	0.000000	0.000000	0.000000
O	0.000000	2.071792	2.071792
O	2.071792	0.000000	2.071792
O	2.071792	2.071792	0.000000
I	2.071792	2.071792	6.215376
Na	0.000000	0.000000	4.143584
O	0.000000	2.071792	6.215376
O	2.071792	0.000000	6.215376
O	2.071792	2.071792	4.143584
I	2.071792	6.215376	2.071792
Na	0.000000	4.143584	0.000000
O	0.000000	6.215376	2.071792
O	2.071792	4.143584	2.071792
O	2.071792	6.215376	0.000000
I	2.071792	6.215376	6.215376
Na	0.000000	4.143584	4.143584
O	0.000000	6.215376	6.215376
O	2.071792	4.143584	6.215376
O	2.071792	6.215376	4.143584
I	6.215376	2.071792	2.071792
Na	4.143584	0.000000	0.000000
O	4.143584	2.071792	2.071792
O	6.215376	0.000000	2.071792
O	6.215376	2.071792	0.000000
I	6.215376	2.071792	6.215376
Na	4.143584	0.000000	4.143584
O	4.143584	2.071792	6.215376
O	6.215376	0.000000	6.215376
O	6.215376	2.071792	4.143584
I	6.215376	6.215376	2.071792
Na	4.143584	4.143584	0.000000
O	4.143584	6.215376	2.071792
O	6.215376	4.143584	2.071792
O	6.215376	6.215376	0.000000
I	6.215376	6.215376	6.215376
Na	4.143584	4.143584	4.143584
O	4.143584	6.215376	6.215376
O	6.215376	4.143584	6.215376
O	6.215376	6.215376	4.143584
