112

Mo	0.000000	0.000000	0.000000
Mo	2.374233	-2.374897	-2.374897
O	3.655923	-1.092354	-1.092354
O	-1.092543	1.092354	-3.657440
O	1.092543	-1.092354	-3.657440
O	1.281690	1.282543	-1.282543
O	5.841010	1.092354	-1.092354
O	1.281690	3.467251	-3.467251
O	3.466777	3.467251	-1.282543
O	3.466777	1.282543	-3.467251
Y	-1.187117	-1.187449	-3.562346
Y	3.561350	1.187449	-1.187449
Y	5.935583	-1.187449	-1.187449
Y	1.187117	1.187449	-3.562346
Mo	4.748467	4.749794	0.000000
Mo	7.122700	2.374897	-2.374897
O	8.404390	3.657440	-1.092354
O	3.655923	5.842148	-3.657440
O	5.841010	3.657440	-3.657440
O	6.030157	6.032337	-1.282543
O	10.589477	5.842148	-1.092354
O	6.030157	8.217045	-3.467251
O	8.215243	8.217045	-1.282543
O	8.215243	6.032337	-3.467251
Y	3.561350	3.562346	-3.562346
Y	8.309817	5.937243	-1.187449
Y	10.684050	3.562346	-1.187449
Y	5.935583	5.937243	-3.562346
Mo	-4.748467	0.000000	-4.749794
Mo	-2.374233	-2.374897	-7.124691
O	-1.092543	-1.092354	-5.842148
O	-5.841010	1.092354	-8.407234
O	-3.655923	-1.092354	-8.407234
O	-3.466777	1.282543	-6.032337
O	1.092543	1.092354	-5.842148
O	-3.466777	3.467251	-8.217045
O	-1.281690	3.467251	-6.032337
O	-1.281690	1.282543	-8.217045
Y	-5.935583	-1.187449	-8.312140
Y	-1.187117	1.187449	-5.937243
Y	1.187117	-1.187449	-5.937243
Y	-3.561350	1.187449	-8.312140
Mo	0.000000	4.749794	-4.749794
Mo	2.374233	2.374897	-7.124691
O	3.655923	3.657440	-5.842148
O	-1.092543	5.842148	-8.407234
O	1.092543	3.657440	-8.407234
O	1.281690	6.032337	-6.032337
O	5.841010	5.842148	-5.842148
O	1.281690	8.217045	-8.217045
O	3.466777	8.217045	-6.032337
O	3.466777	6.032337	-8.217045
Y	-1.187117	3.562346	-8.312140
Y	3.561350	5.937243	-5.937243
Y	5.935583	3.562346	-5.937243
Y	1.187117	5.937243	-8.312140
Mo	4.748467	-4.749794	0.000000
Mo	7.122700	-7.124691	-2.374897
O	8.404390	-5.842148	-1.092354
O	3.655923	-3.657440	-3.657440
O	5.841010	-5.842148	-3.657440
O	6.030157	-3.467251	-1.282543
O	10.589477	-3.657440	-1.092354
O	6.030157	-1.282543	-3.467251
O	8.215243	-1.282543	-1.282543
O	8.215243	-3.467251	-3.467251
Y	3.561350	-5.937243	-3.562346
Y	8.309817	-3.562346	-1.187449
Y	10.684050	-5.937243	-1.187449
Y	5.935583	-3.562346	-3.562346
Mo	9.496933	0.000000	0.000000
Mo	11.871167	-2.374897	-2.374897
O	13.152857	-1.092354	-1.092354
O	8.404390	1.092354	-3.657440
O	10.589477	-1.092354	-3.657440
O	10.778623	1.282543	-1.282543
O	15.337943	1.092354	-1.092354
O	10.778623	3.467251	-3.467251
O	12.963710	3.467251	-1.282543
O	12.963710	1.282543	-3.467251
Y	8.309817	-1.187449	-3.562346
Y	13.058283	1.187449	-1.187449
Y	15.432517	-1.187449	-1.187449
Y	10.684050	1.187449	-3.562346
Mo	0.000000	-4.749794	-4.749794
Mo	2.374233	-7.124691	-7.124691
O	3.655923	-5.842148	-5.842148
O	-1.092543	-3.657440	-8.407234
O	1.092543	-5.842148	-8.407234
O	1.281690	-3.467251	-6.032337
O	5.841010	-3.657440	-5.842148
O	1.281690	-1.282543	-8.217045
O	3.466777	-1.282543	-6.032337
O	3.466777	-3.467251	-8.217045
Y	-1.187117	-5.937243	-8.312140
Y	3.561350	-3.562346	-5.937243
Y	5.935583	-5.937243	-5.937243
Y	1.187117	-3.562346	-8.312140
Mo	4.748467	0.000000	-4.749794
Mo	7.122700	-2.374897	-7.124691
O	8.404390	-1.092354	-5.842148
O	3.655923	1.092354	-8.407234
O	5.841010	-1.092354	-8.407234
O	6.030157	1.282543	-6.032337
O	10.589477	1.092354	-5.842148
O	6.030157	3.467251	-8.217045
O	8.215243	3.467251	-6.032337
O	8.215243	1.282543	-8.217045
Y	3.561350	-1.187449	-8.312140
Y	8.309817	1.187449	-5.937243
Y	10.684050	-1.187449	-5.937243
Y	5.935583	1.187449	-8.312140
