112

Cr	0.000000	0.000000	0.000000
Cr	2.392139	-2.390155	-2.390155
O	3.448842	-1.341361	-1.341361
O	-1.335436	1.341361	-3.438949
O	1.335436	-1.341361	-3.438949
O	1.056703	1.048794	-1.048794
O	6.119713	1.341361	-1.341361
O	1.056703	3.731515	-3.731515
O	3.727575	3.731515	-1.048794
O	3.727575	1.048794	-3.731515
Pb	-1.196069	-1.195077	-3.585232
Pb	3.588208	1.195077	-1.195077
Pb	5.980347	-1.195077	-1.195077
Pb	1.196069	1.195077	-3.585232
Cr	4.784277	4.780310	0.000000
Cr	7.176416	2.390155	-2.390155
O	8.233119	3.438949	-1.341361
O	3.448842	6.121670	-3.438949
O	6.119713	3.438949	-3.438949
O	5.840980	5.829104	-1.048794
O	10.903991	6.121670	-1.341361
O	5.840980	8.511825	-3.731515
O	8.511852	8.511825	-1.048794
O	8.511852	5.829104	-3.731515
Pb	3.588208	3.585232	-3.585232
Pb	8.372486	5.975387	-1.195077
Pb	10.764624	3.585232	-1.195077
Pb	5.980347	5.975387	-3.585232
Cr	-4.784277	0.000000	-4.780310
Cr	-2.392139	-2.390155	-7.170465
O	-1.335436	-1.341361	-6.121670
O	-6.119713	1.341361	-8.219259
O	-3.448842	-1.341361	-8.219259
O	-3.727575	1.048794	-5.829104
O	1.335436	1.341361	-6.121670
O	-3.727575	3.731515	-8.511825
O	-1.056703	3.731515	-5.829104
O	-1.056703	1.048794	-8.511825
Pb	-5.980347	-1.195077	-8.365542
Pb	-1.196069	1.195077	-5.975387
Pb	1.196069	-1.195077	-5.975387
Pb	-3.588208	1.195077	-8.365542
Cr	0.000000	4.780310	-4.780310
Cr	2.392139	2.390155	-7.170465
O	3.448842	3.438949	-6.121670
O	-1.335436	6.121670	-8.219259
O	1.335436	3.438949	-8.219259
O	1.056703	5.829104	-5.829104
O	6.119713	6.121670	-6.121670
O	1.056703	8.511825	-8.511825
O	3.727575	8.511825	-5.829104
O	3.727575	5.829104	-8.511825
Pb	-1.196069	3.585232	-8.365542
Pb	3.588208	5.975387	-5.975387
Pb	5.980347	3.585232	-5.975387
Pb	1.196069	5.975387	-8.365542
Cr	4.784277	-4.780310	0.000000
Cr	7.176416	-7.170465	-2.390155
O	8.233119	-6.121670	-1.341361
O	3.448842	-3.438949	-3.438949
O	6.119713	-6.121670	-3.438949
O	5.840980	-3.731515	-1.048794
O	10.903991	-3.438949	-1.341361
O	5.840980	-1.048794	-3.731515
O	8.511852	-1.048794	-1.048794
O	8.511852	-3.731515	-3.731515
Pb	3.588208	-5.975387	-3.585232
Pb	8.372486	-3.585232	-1.195077
Pb	10.764624	-5.975387	-1.195077
Pb	5.980347	-3.585232	-3.585232
Cr	9.568555	0.000000	0.000000
Cr	11.960694	-2.390155	-2.390155
O	13.017396	-1.341361	-1.341361
O	8.233119	1.341361	-3.438949
O	10.903991	-1.341361	-3.438949
O	10.625258	1.048794	-1.048794
O	15.688268	1.341361	-1.341361
O	10.625258	3.731515	-3.731515
O	13.296130	3.731515	-1.048794
O	13.296130	1.048794	-3.731515
Pb	8.372486	-1.195077	-3.585232
Pb	13.156763	1.195077	-1.195077
Pb	15.548902	-1.195077	-1.195077
Pb	10.764624	1.195077	-3.585232
Cr	0.000000	-4.780310	-4.780310
Cr	2.392139	-7.170465	-7.170465
O	3.448842	-6.121670	-6.121670
O	-1.335436	-3.438949	-8.219259
O	1.335436	-6.121670	-8.219259
O	1.056703	-3.731515	-5.829104
O	6.119713	-3.438949	-6.121670
O	1.056703	-1.048794	-8.511825
O	3.727575	-1.048794	-5.829104
O	3.727575	-3.731515	-8.511825
Pb	-1.196069	-5.975387	-8.365542
Pb	3.588208	-3.585232	-5.975387
Pb	5.980347	-5.975387	-5.975387
Pb	1.196069	-3.585232	-8.365542
Cr	4.784277	0.000000	-4.780310
Cr	7.176416	-2.390155	-7.170465
O	8.233119	-1.341361	-6.121670
O	3.448842	1.341361	-8.219259
O	6.119713	-1.341361	-8.219259
O	5.840980	1.048794	-5.829104
O	10.903991	1.341361	-6.121670
O	5.840980	3.731515	-8.511825
O	8.511852	3.731515	-5.829104
O	8.511852	1.048794	-8.511825
Pb	3.588208	-1.195077	-8.365542
Pb	8.372486	1.195077	-5.975387
Pb	10.764624	-1.195077	-5.975387
Pb	5.980347	1.195077	-8.365542
