40

Cr	0.000000	0.000000	0.000000
In	2.081688	2.081688	2.081688
O	2.081688	2.081688	0.000000
O	2.081688	0.000000	2.081688
O	0.000000	2.081688	2.081688
Cr	0.000000	0.000000	4.163377
In	2.081688	2.081688	6.245065
O	2.081688	2.081688	4.163377
O	2.081688	0.000000	6.245065
O	0.000000	2.081688	6.245065
Cr	0.000000	4.163377	0.000000
In	2.081688	6.245065	2.081688
O	2.081688	6.245065	0.000000
O	2.081688	4.163377	2.081688
O	0.000000	6.245065	2.081688
Cr	0.000000	4.163377	4.163377
In	2.081688	6.245065	6.245065
O	2.081688	6.245065	4.163377
O	2.081688	4.163377	6.245065
O	0.000000	6.245065	6.245065
Cr	4.163377	0.000000	0.000000
In	6.245065	2.081688	2.081688
O	6.245065	2.081688	0.000000
O	6.245065	0.000000	2.081688
O	4.163377	2.081688	2.081688
Cr	4.163377	0.000000	4.163377
In	6.245065	2.081688	6.245065
O	6.245065	2.081688	4.163377
O	6.245065	0.000000	6.245065
O	4.163377	2.081688	6.245065
Cr	4.163377	4.163377	0.000000
In	6.245065	6.245065	2.081688
O	6.245065	6.245065	0.000000
O	6.245065	4.163377	2.081688
O	4.163377	6.245065	2.081688
Cr	4.163377	4.163377	4.163377
In	6.245065	6.245065	6.245065
O	6.245065	6.245065	4.163377
O	6.245065	4.163377	6.245065
O	4.163377	6.245065	6.245065
