40

K	2.206032	2.206032	2.206032
Mn	0.000000	0.000000	0.000000
O	2.206032	2.206032	0.000000
O	2.206032	0.000000	2.206032
O	0.000000	2.206032	2.206032
K	2.206032	2.206032	6.618104
Mn	0.000000	0.000000	4.412072
O	2.206032	2.206032	4.412072
O	2.206032	0.000000	6.618104
O	0.000000	2.206032	6.618104
K	2.206032	6.618104	2.206032
Mn	0.000000	4.412072	0.000000
O	2.206032	6.618104	0.000000
O	2.206032	4.412072	2.206032
O	0.000000	6.618104	2.206032
K	2.206032	6.618104	6.618104
Mn	0.000000	4.412072	4.412072
O	2.206032	6.618104	4.412072
O	2.206032	4.412072	6.618104
O	0.000000	6.618104	6.618104
K	6.618104	2.206032	2.206032
Mn	4.412072	0.000000	0.000000
O	6.618104	2.206032	0.000000
O	6.618104	0.000000	2.206032
O	4.412072	2.206032	2.206032
K	6.618104	2.206032	6.618104
Mn	4.412072	0.000000	4.412072
O	6.618104	2.206032	4.412072
O	6.618104	0.000000	6.618104
O	4.412072	2.206032	6.618104
K	6.618104	6.618104	2.206032
Mn	4.412072	4.412072	0.000000
O	6.618104	6.618104	0.000000
O	6.618104	4.412072	2.206032
O	4.412072	6.618104	2.206032
K	6.618104	6.618104	6.618104
Mn	4.412072	4.412072	4.412072
O	6.618104	6.618104	4.412072
O	6.618104	4.412072	6.618104
O	4.412072	6.618104	6.618104
