40

K	0.000000	0.000000	0.000000
Mn	1.891179	1.891179	1.891179
O	0.000000	1.891179	1.891179
O	1.891179	0.000000	1.891179
O	1.891179	1.891179	0.000000
K	0.000000	0.000000	3.782358
Mn	1.891179	1.891179	5.673537
O	0.000000	1.891179	5.673537
O	1.891179	0.000000	5.673537
O	1.891179	1.891179	3.782358
K	0.000000	3.782358	0.000000
Mn	1.891179	5.673537	1.891179
O	0.000000	5.673537	1.891179
O	1.891179	3.782358	1.891179
O	1.891179	5.673537	0.000000
K	0.000000	3.782358	3.782358
Mn	1.891179	5.673537	5.673537
O	0.000000	5.673537	5.673537
O	1.891179	3.782358	5.673537
O	1.891179	5.673537	3.782358
K	3.782358	0.000000	0.000000
Mn	5.673537	1.891179	1.891179
O	3.782358	1.891179	1.891179
O	5.673537	0.000000	1.891179
O	5.673537	1.891179	0.000000
K	3.782358	0.000000	3.782358
Mn	5.673537	1.891179	5.673537
O	3.782358	1.891179	5.673537
O	5.673537	0.000000	5.673537
O	5.673537	1.891179	3.782358
K	3.782358	3.782358	0.000000
Mn	5.673537	5.673537	1.891179
O	3.782358	5.673537	1.891179
O	5.673537	3.782358	1.891179
O	5.673537	5.673537	0.000000
K	3.782358	3.782358	3.782358
Mn	5.673537	5.673537	5.673537
O	3.782358	5.673537	5.673537
O	5.673537	3.782358	5.673537
O	5.673537	5.673537	3.782358
