40

K	2.248110	2.248110	2.248110
Mn	0.000000	0.000000	0.000000
O	0.000000	2.248110	2.248110
O	2.248110	0.000000	2.248110
O	2.248110	2.248110	0.000000
K	2.248110	2.248110	6.744329
Mn	0.000000	0.000000	4.496219
O	0.000000	2.248110	6.744329
O	2.248110	0.000000	6.744329
O	2.248110	2.248110	4.496219
K	2.248110	6.744329	2.248110
Mn	0.000000	4.496219	0.000000
O	0.000000	6.744329	2.248110
O	2.248110	4.496219	2.248110
O	2.248110	6.744329	0.000000
K	2.248110	6.744329	6.744329
Mn	0.000000	4.496219	4.496219
O	0.000000	6.744329	6.744329
O	2.248110	4.496219	6.744329
O	2.248110	6.744329	4.496219
K	6.744329	2.248110	2.248110
Mn	4.496219	0.000000	0.000000
O	4.496219	2.248110	2.248110
O	6.744329	0.000000	2.248110
O	6.744329	2.248110	0.000000
K	6.744329	2.248110	6.744329
Mn	4.496219	0.000000	4.496219
O	4.496219	2.248110	6.744329
O	6.744329	0.000000	6.744329
O	6.744329	2.248110	4.496219
K	6.744329	6.744329	2.248110
Mn	4.496219	4.496219	0.000000
O	4.496219	6.744329	2.248110
O	6.744329	4.496219	2.248110
O	6.744329	6.744329	0.000000
K	6.744329	6.744329	6.744329
Mn	4.496219	4.496219	4.496219
O	4.496219	6.744329	6.744329
O	6.744329	4.496219	6.744329
O	6.744329	6.744329	4.496219
