112

B	0.000000	0.000000	0.000000
B	1.963966	-1.964029	-1.964029
Mg	-0.981983	-0.982014	-2.946043
Mg	2.945949	0.982014	-0.982014
Mg	4.909915	-0.982014	-0.982014
Mg	0.981983	0.982014	-2.946043
O	2.846320	-1.081518	-1.081518
O	-1.081612	1.081518	-2.846540
O	1.081612	-1.081518	-2.846540
O	0.882354	0.882511	-0.882511
O	5.009544	1.081518	-1.081518
O	0.882354	3.045546	-3.045546
O	3.045578	3.045546	-0.882511
O	3.045578	0.882511	-3.045546
B	3.927932	3.928057	0.000000
B	5.891899	1.964029	-1.964029
Mg	2.945949	2.946043	-2.946043
Mg	6.873882	4.910072	-0.982014
Mg	8.837848	2.946043	-0.982014
Mg	4.909915	4.910072	-2.946043
O	6.774253	2.846540	-1.081518
O	2.846320	5.009575	-2.846540
O	5.009544	2.846540	-2.846540
O	4.810286	4.810568	-0.882511
O	8.937477	5.009575	-1.081518
O	4.810286	6.973604	-3.045546
O	6.973511	6.973604	-0.882511
O	6.973511	4.810568	-3.045546
B	-3.927932	0.000000	-3.928057
B	-1.963966	-1.964029	-5.892086
Mg	-4.909915	-0.982014	-6.874100
Mg	-0.981983	0.982014	-4.910072
Mg	0.981983	-0.982014	-4.910072
Mg	-2.945949	0.982014	-6.874100
O	-1.081612	-1.081518	-5.009575
O	-5.009544	1.081518	-6.774597
O	-2.846320	-1.081518	-6.774597
O	-3.045578	0.882511	-4.810568
O	1.081612	1.081518	-5.009575
O	-3.045578	3.045546	-6.973604
O	-0.882354	3.045546	-4.810568
O	-0.882354	0.882511	-6.973604
B	0.000000	3.928057	-3.928057
B	1.963966	1.964029	-5.892086
Mg	-0.981983	2.946043	-6.874100
Mg	2.945949	4.910072	-4.910072
Mg	4.909915	2.946043	-4.910072
Mg	0.981983	4.910072	-6.874100
O	2.846320	2.846540	-5.009575
O	-1.081612	5.009575	-6.774597
O	1.081612	2.846540	-6.774597
O	0.882354	4.810568	-4.810568
O	5.009544	5.009575	-5.009575
O	0.882354	6.973604	-6.973604
O	3.045578	6.973604	-4.810568
O	3.045578	4.810568	-6.973604
B	3.927932	-3.928057	0.000000
B	5.891899	-5.892086	-1.964029
Mg	2.945949	-4.910072	-2.946043
Mg	6.873882	-2.946043	-0.982014
Mg	8.837848	-4.910072	-0.982014
Mg	4.909915	-2.946043	-2.946043
O	6.774253	-5.009575	-1.081518
O	2.846320	-2.846540	-2.846540
O	5.009544	-5.009575	-2.846540
O	4.810286	-3.045546	-0.882511
O	8.937477	-2.846540	-1.081518
O	4.810286	-0.882511	-3.045546
O	6.973511	-0.882511	-0.882511
O	6.973511	-3.045546	-3.045546
B	7.855865	0.000000	0.000000
B	9.819831	-1.964029	-1.964029
Mg	6.873882	-0.982014	-2.946043
Mg	10.801814	0.982014	-0.982014
Mg	12.765780	-0.982014	-0.982014
Mg	8.837848	0.982014	-2.946043
O	10.702185	-1.081518	-1.081518
O	6.774253	1.081518	-2.846540
O	8.937477	-1.081518	-2.846540
O	8.738219	0.882511	-0.882511
O	12.865409	1.081518	-1.081518
O	8.738219	3.045546	-3.045546
O	10.901443	3.045546	-0.882511
O	10.901443	0.882511	-3.045546
B	0.000000	-3.928057	-3.928057
B	1.963966	-5.892086	-5.892086
Mg	-0.981983	-4.910072	-6.874100
Mg	2.945949	-2.946043	-4.910072
Mg	4.909915	-4.910072	-4.910072
Mg	0.981983	-2.946043	-6.874100
O	2.846320	-5.009575	-5.009575
O	-1.081612	-2.846540	-6.774597
O	1.081612	-5.009575	-6.774597
O	0.882354	-3.045546	-4.810568
O	5.009544	-2.846540	-5.009575
O	0.882354	-0.882511	-6.973604
O	3.045578	-0.882511	-4.810568
O	3.045578	-3.045546	-6.973604
B	3.927932	0.000000	-3.928057
B	5.891899	-1.964029	-5.892086
Mg	2.945949	-0.982014	-6.874100
Mg	6.873882	0.982014	-4.910072
Mg	8.837848	-0.982014	-4.910072
Mg	4.909915	0.982014	-6.874100
O	6.774253	-1.081518	-5.009575
O	2.846320	1.081518	-6.774597
O	5.009544	-1.081518	-6.774597
O	4.810286	0.882511	-4.810568
O	8.937477	1.081518	-5.009575
O	4.810286	3.045546	-6.973604
O	6.973511	3.045546	-4.810568
O	6.973511	0.882511	-6.973604
