112

Eu	0.000000	0.000000	0.000000
Eu	2.158476	-2.160707	-2.160707
Li	-1.079243	-1.080354	-3.241061
Li	5.396185	-1.080354	-1.080354
Li	3.237719	1.080354	-1.080354
Li	1.079243	1.080354	-3.241061
O	-0.878595	0.877420	-3.443985
O	3.438367	-0.877420	-0.877420
O	0.878595	-0.877420	-3.443985
O	1.279891	1.283288	-1.283288
O	5.195537	0.877420	-0.877420
O	1.279891	3.038117	-3.038117
O	3.037061	3.038117	-1.283288
O	3.037061	1.283288	-3.038117
Eu	4.316951	4.321407	0.000000
Eu	6.475427	2.160699	-2.160707
Li	3.237708	3.241053	-3.241061
Li	9.713136	3.241053	-1.080354
Li	7.554670	5.401760	-1.080354
Li	5.396194	5.401760	-3.241061
O	3.438356	5.198826	-3.443985
O	7.755318	3.443987	-0.877420
O	5.195546	3.443987	-3.443985
O	5.596842	5.604694	-1.283288
O	9.512488	5.198826	-0.877420
O	5.596842	7.359524	-3.038117
O	7.354012	7.359524	-1.283288
O	7.354012	5.604694	-3.038117
Eu	-4.316951	0.000000	-4.321407
Eu	-2.158475	-2.160707	-6.482114
Li	-5.396194	-1.080354	-7.562468
Li	1.079234	-1.080354	-5.401760
Li	-1.079232	1.080354	-5.401760
Li	-3.237708	1.080354	-7.562468
O	-5.195546	0.877420	-7.765392
O	-0.878584	-0.877420	-5.198826
O	-3.438356	-0.877420	-7.765392
O	-3.037060	1.283288	-5.604694
O	0.878586	0.877420	-5.198826
O	-3.037060	3.038117	-7.359524
O	-1.279890	3.038117	-5.604694
O	-1.279890	1.283288	-7.359524
Eu	0.000000	4.321407	-4.321407
Eu	2.158476	2.160699	-6.482114
Li	-1.079243	3.241053	-7.562468
Li	5.396185	3.241053	-5.401760
Li	3.237719	5.401760	-5.401760
Li	1.079243	5.401760	-7.562468
O	-0.878595	5.198826	-7.765392
O	3.438367	3.443987	-5.198826
O	0.878595	3.443987	-7.765392
O	1.279891	5.604694	-5.604694
O	5.195537	5.198826	-5.198826
O	1.279891	7.359524	-7.359524
O	3.037061	7.359524	-5.604694
O	3.037061	5.604694	-7.359524
Eu	4.316951	-4.321407	0.000000
Eu	6.475427	-6.482114	-2.160707
Li	3.237708	-5.401760	-3.241061
Li	9.713136	-5.401760	-1.080354
Li	7.554670	-3.241053	-1.080354
Li	5.396194	-3.241053	-3.241061
O	3.438356	-3.443987	-3.443985
O	7.755318	-5.198826	-0.877420
O	5.195546	-5.198826	-3.443985
O	5.596842	-3.038119	-1.283288
O	9.512488	-3.443987	-0.877420
O	5.596842	-1.283290	-3.038117
O	7.354012	-1.283290	-1.283288
O	7.354012	-3.038119	-3.038117
Eu	8.633902	0.000000	0.000000
Eu	10.792378	-2.160707	-2.160707
Li	7.554659	-1.080354	-3.241061
Li	14.030087	-1.080354	-1.080354
Li	11.871621	1.080354	-1.080354
Li	9.713145	1.080354	-3.241061
O	7.755307	0.877420	-3.443985
O	12.072269	-0.877420	-0.877420
O	9.512497	-0.877420	-3.443985
O	9.913793	1.283288	-1.283288
O	13.829439	0.877420	-0.877420
O	9.913793	3.038117	-3.038117
O	11.670963	3.038117	-1.283288
O	11.670963	1.283288	-3.038117
Eu	0.000000	-4.321407	-4.321407
Eu	2.158476	-6.482114	-6.482114
Li	-1.079243	-5.401760	-7.562468
Li	5.396185	-5.401760	-5.401760
Li	3.237719	-3.241053	-5.401760
Li	1.079243	-3.241053	-7.562468
O	-0.878595	-3.443987	-7.765392
O	3.438367	-5.198826	-5.198826
O	0.878595	-5.198826	-7.765392
O	1.279891	-3.038119	-5.604694
O	5.195537	-3.443987	-5.198826
O	1.279891	-1.283290	-7.359524
O	3.037061	-1.283290	-5.604694
O	3.037061	-3.038119	-7.359524
Eu	4.316951	0.000000	-4.321407
Eu	6.475427	-2.160707	-6.482114
Li	3.237708	-1.080354	-7.562468
Li	9.713136	-1.080354	-5.401760
Li	7.554670	1.080354	-5.401760
Li	5.396194	1.080354	-7.562468
O	3.438356	0.877420	-7.765392
O	7.755318	-0.877420	-5.198826
O	5.195546	-0.877420	-7.765392
O	5.596842	1.283288	-5.604694
O	9.512488	0.877420	-5.198826
O	5.596842	3.038117	-7.359524
O	7.354012	3.038117	-5.604694
O	7.354012	1.283288	-7.359524
