112

O	3.622870	-0.970402	-0.970402
O	-0.971427	0.970402	-3.624626
O	0.971427	-0.970402	-3.624626
O	1.325722	1.327112	-1.327112
O	5.565725	0.970402	-0.970402
O	1.325722	3.267915	-3.267915
O	3.268576	3.267915	-1.327112
O	3.268576	1.327112	-3.267915
Pr	0.000000	0.000000	0.000000
Pr	2.297149	-2.297514	-2.297514
W	-1.148574	-1.148757	-3.446270
W	3.445723	1.148757	-1.148757
W	5.742872	-1.148757	-1.148757
W	1.148574	1.148757	-3.446270
O	8.217168	3.624626	-0.970402
O	3.622870	5.565429	-3.624626
O	5.565725	3.624626	-3.624626
O	5.920019	5.922139	-1.327112
O	10.160022	5.565429	-0.970402
O	5.920019	7.862942	-3.267915
O	7.862873	7.862942	-1.327112
O	7.862873	5.922139	-3.267915
Pr	4.594297	4.595027	0.000000
Pr	6.891446	2.297514	-2.297514
W	3.445723	3.446270	-3.446270
W	8.040020	5.743784	-1.148757
W	10.337169	3.446270	-1.148757
W	5.742872	5.743784	-3.446270
O	-0.971427	-0.970402	-5.565429
O	-5.565725	0.970402	-8.219653
O	-3.622870	-0.970402	-8.219653
O	-3.268576	1.327112	-5.922139
O	0.971427	0.970402	-5.565429
O	-3.268576	3.267915	-7.862942
O	-1.325722	3.267915	-5.922139
O	-1.325722	1.327112	-7.862942
Pr	-4.594297	0.000000	-4.595027
Pr	-2.297149	-2.297514	-6.892541
W	-5.742872	-1.148757	-8.041298
W	-1.148574	1.148757	-5.743784
W	1.148574	-1.148757	-5.743784
W	-3.445723	1.148757	-8.041298
O	3.622870	3.624626	-5.565429
O	-0.971427	5.565429	-8.219653
O	0.971427	3.624626	-8.219653
O	1.325722	5.922139	-5.922139
O	5.565725	5.565429	-5.565429
O	1.325722	7.862942	-7.862942
O	3.268576	7.862942	-5.922139
O	3.268576	5.922139	-7.862942
Pr	0.000000	4.595027	-4.595027
Pr	2.297149	2.297514	-6.892541
W	-1.148574	3.446270	-8.041298
W	3.445723	5.743784	-5.743784
W	5.742872	3.446270	-5.743784
W	1.148574	5.743784	-8.041298
O	8.217168	-5.565429	-0.970402
O	3.622870	-3.624626	-3.624626
O	5.565725	-5.565429	-3.624626
O	5.920019	-3.267915	-1.327112
O	10.160022	-3.624626	-0.970402
O	5.920019	-1.327112	-3.267915
O	7.862873	-1.327112	-1.327112
O	7.862873	-3.267915	-3.267915
Pr	4.594297	-4.595027	0.000000
Pr	6.891446	-6.892541	-2.297514
W	3.445723	-5.743784	-3.446270
W	8.040020	-3.446270	-1.148757
W	10.337169	-5.743784	-1.148757
W	5.742872	-3.446270	-3.446270
O	12.811465	-0.970402	-0.970402
O	8.217168	0.970402	-3.624626
O	10.160022	-0.970402	-3.624626
O	10.514316	1.327112	-1.327112
O	14.754319	0.970402	-0.970402
O	10.514316	3.267915	-3.267915
O	12.457171	3.267915	-1.327112
O	12.457171	1.327112	-3.267915
Pr	9.188595	0.000000	0.000000
Pr	11.485743	-2.297514	-2.297514
W	8.040020	-1.148757	-3.446270
W	12.634318	1.148757	-1.148757
W	14.931466	-1.148757	-1.148757
W	10.337169	1.148757	-3.446270
O	3.622870	-5.565429	-5.565429
O	-0.971427	-3.624626	-8.219653
O	0.971427	-5.565429	-8.219653
O	1.325722	-3.267915	-5.922139
O	5.565725	-3.624626	-5.565429
O	1.325722	-1.327112	-7.862942
O	3.268576	-1.327112	-5.922139
O	3.268576	-3.267915	-7.862942
Pr	0.000000	-4.595027	-4.595027
Pr	2.297149	-6.892541	-6.892541
W	-1.148574	-5.743784	-8.041298
W	3.445723	-3.446270	-5.743784
W	5.742872	-5.743784	-5.743784
W	1.148574	-3.446270	-8.041298
O	8.217168	-0.970402	-5.565429
O	3.622870	0.970402	-8.219653
O	5.565725	-0.970402	-8.219653
O	5.920019	1.327112	-5.922139
O	10.160022	0.970402	-5.565429
O	5.920019	3.267915	-7.862942
O	7.862873	3.267915	-5.922139
O	7.862873	1.327112	-7.862942
Pr	4.594297	0.000000	-4.595027
Pr	6.891446	-2.297514	-6.892541
W	3.445723	-1.148757	-8.041298
W	8.040020	1.148757	-5.743784
W	10.337169	-1.148757	-5.743784
W	5.742872	1.148757	-8.041298
