40

Hf	2.088814	2.088814	2.088814
K	0.000000	0.000000	0.000000
O	0.000000	2.088814	2.088814
O	2.088814	0.000000	2.088814
O	2.088814	2.088814	0.000000
Hf	2.088814	2.088814	6.266443
K	0.000000	0.000000	4.177629
O	0.000000	2.088814	6.266443
O	2.088814	0.000000	6.266443
O	2.088814	2.088814	4.177629
Hf	2.088814	6.266443	2.088814
K	0.000000	4.177629	0.000000
O	0.000000	6.266443	2.088814
O	2.088814	4.177629	2.088814
O	2.088814	6.266443	0.000000
Hf	2.088814	6.266443	6.266443
K	0.000000	4.177629	4.177629
O	0.000000	6.266443	6.266443
O	2.088814	4.177629	6.266443
O	2.088814	6.266443	4.177629
Hf	6.266443	2.088814	2.088814
K	4.177629	0.000000	0.000000
O	4.177629	2.088814	2.088814
O	6.266443	0.000000	2.088814
O	6.266443	2.088814	0.000000
Hf	6.266443	2.088814	6.266443
K	4.177629	0.000000	4.177629
O	4.177629	2.088814	6.266443
O	6.266443	0.000000	6.266443
O	6.266443	2.088814	4.177629
Hf	6.266443	6.266443	2.088814
K	4.177629	4.177629	0.000000
O	4.177629	6.266443	2.088814
O	6.266443	4.177629	2.088814
O	6.266443	6.266443	0.000000
Hf	6.266443	6.266443	6.266443
K	4.177629	4.177629	4.177629
O	4.177629	6.266443	6.266443
O	6.266443	4.177629	6.266443
O	6.266443	6.266443	4.177629
