176

O	7.516010	5.314622	13.018111
O	1.073716	0.759232	1.859730
O	4.464397	5.074864	10.864739
O	2.316966	3.556400	7.145278
O	6.272760	2.517453	10.864739
O	7.176941	5.074864	9.298651
O	3.560216	2.517453	9.298651
O	4.464397	5.074864	7.732563
O	6.272760	2.517453	7.732563
O	5.029510	3.556400	5.579191
O	1.412785	0.998990	5.579191
O	4.125328	0.998990	4.013103
O	4.125328	0.998990	7.145278
O	2.316966	3.556400	4.013103
Nd	1.073716	3.036927	1.859730
Nd	3.221147	0.000000	1.859730
Nd	0.000000	0.000000	3.719460
Nd	0.000000	0.000000	0.000000
Pt	3.221147	0.000000	5.579191
Pt	1.073716	3.036927	5.579191
Pt	4.294863	3.036927	3.719460
Pt	4.294863	3.036927	7.438921
O	7.516010	5.314622	20.457032
O	1.073716	0.759232	9.298651
O	4.464397	5.074864	18.303659
O	2.316966	3.556400	14.584199
O	6.272760	2.517453	18.303659
O	7.176941	5.074864	16.737572
O	3.560216	2.517453	16.737572
O	4.464397	5.074864	15.171484
O	6.272760	2.517453	15.171484
O	5.029510	3.556400	13.018111
O	1.412785	0.998990	13.018111
O	4.125328	0.998990	11.452023
O	4.125328	0.998990	14.584199
O	2.316966	3.556400	11.452023
Nd	1.073716	3.036927	9.298651
Nd	3.221147	0.000000	9.298651
Nd	0.000000	0.000000	11.158381
Nd	0.000000	0.000000	7.438921
Pt	3.221147	0.000000	13.018111
Pt	1.073716	3.036927	13.018111
Pt	4.294863	3.036927	11.158381
Pt	4.294863	3.036927	14.877841
O	9.663441	11.388475	16.737572
O	3.221147	6.833085	5.579191
O	6.611829	11.148717	14.584199
O	4.464397	9.630254	10.864739
O	8.420191	8.591306	14.584199
O	9.324372	11.148717	13.018111
O	5.707648	8.591306	13.018111
O	6.611829	11.148717	11.452023
O	8.420191	8.591306	11.452023
O	7.176941	9.630254	9.298651
O	3.560216	7.072843	9.298651
O	6.272760	7.072843	7.732563
O	6.272760	7.072843	10.864739
O	4.464397	9.630254	7.732563
Nd	3.221147	9.110780	5.579191
Nd	5.368579	6.073853	5.579191
Nd	2.147431	6.073853	7.438921
Nd	2.147431	6.073853	3.719460
Pt	5.368579	6.073853	9.298651
Pt	3.221147	9.110780	9.298651
Pt	6.442294	9.110780	7.438921
Pt	6.442294	9.110780	11.158381
O	9.663441	11.388475	24.176492
O	3.221147	6.833085	13.018111
O	6.611829	11.148717	22.023120
O	4.464397	9.630254	18.303659
O	8.420191	8.591306	22.023120
O	9.324372	11.148717	20.457032
O	5.707648	8.591306	20.457032
O	6.611829	11.148717	18.890944
O	8.420191	8.591306	18.890944
O	7.176941	9.630254	16.737572
O	3.560216	7.072843	16.737572
O	6.272760	7.072843	15.171484
O	6.272760	7.072843	18.303659
O	4.464397	9.630254	15.171484
Nd	3.221147	9.110780	13.018111
Nd	5.368579	6.073853	13.018111
Nd	2.147431	6.073853	14.877841
Nd	2.147431	6.073853	11.158381
Pt	5.368579	6.073853	16.737572
Pt	3.221147	9.110780	16.737572
Pt	6.442294	9.110780	14.877841
Pt	6.442294	9.110780	18.597302
O	13.958304	5.314622	16.737572
O	7.516010	0.759232	5.579191
O	10.906692	5.074864	14.584199
O	8.759260	3.556400	10.864739
O	12.715054	2.517453	14.584199
O	13.619235	5.074864	13.018111
O	10.002510	2.517453	13.018111
O	10.906692	5.074864	11.452023
O	12.715054	2.517453	11.452023
O	11.471804	3.556400	9.298651
O	7.855079	0.998990	9.298651
O	10.567623	0.998990	7.732563
O	10.567623	0.998990	10.864739
O	8.759260	3.556400	7.732563
Nd	7.516010	3.036927	5.579191
Nd	9.663441	0.000000	5.579191
Nd	6.442294	0.000000	7.438921
Nd	6.442294	0.000000	3.719460
Pt	9.663441	0.000000	9.298651
Pt	7.516010	3.036927	9.298651
Pt	10.737157	3.036927	7.438921
Pt	10.737157	3.036927	11.158381
O	13.958304	5.314622	24.176492
O	7.516010	0.759232	13.018111
O	10.906692	5.074864	22.023120
O	8.759260	3.556400	18.303659
O	12.715054	2.517453	22.023120
O	13.619235	5.074864	20.457032
O	10.002510	2.517453	20.457032
O	10.906692	5.074864	18.890944
O	12.715054	2.517453	18.890944
O	11.471804	3.556400	16.737572
O	7.855079	0.998990	16.737572
O	10.567623	0.998990	15.171484
O	10.567623	0.998990	18.303659
O	8.759260	3.556400	15.171484
Nd	7.516010	3.036927	13.018111
Nd	9.663441	0.000000	13.018111
Nd	6.442294	0.000000	14.877841
Nd	6.442294	0.000000	11.158381
Pt	9.663441	0.000000	16.737572
Pt	7.516010	3.036927	16.737572
Pt	10.737157	3.036927	14.877841
Pt	10.737157	3.036927	18.597302
O	16.105736	11.388475	20.457032
O	9.663441	6.833085	9.298651
O	13.054123	11.148717	18.303659
O	10.906692	9.630254	14.584199
O	14.862486	8.591306	18.303659
O	15.766667	11.148717	16.737572
O	12.149942	8.591306	16.737572
O	13.054123	11.148717	15.171484
O	14.862486	8.591306	15.171484
O	13.619235	9.630254	13.018111
O	10.002510	7.072843	13.018111
O	12.715054	7.072843	11.452023
O	12.715054	7.072843	14.584199
O	10.906692	9.630254	11.452023
Nd	9.663441	9.110780	9.298651
Nd	11.810873	6.073853	9.298651
Nd	8.589726	6.073853	11.158381
Nd	8.589726	6.073853	7.438921
Pt	11.810873	6.073853	13.018111
Pt	9.663441	9.110780	13.018111
Pt	12.884589	9.110780	11.158381
Pt	12.884589	9.110780	14.877841
O	16.105736	11.388475	27.895953
O	9.663441	6.833085	16.737572
O	13.054123	11.148717	25.742580
O	10.906692	9.630254	22.023120
O	14.862486	8.591306	25.742580
O	15.766667	11.148717	24.176492
O	12.149942	8.591306	24.176492
O	13.054123	11.148717	22.610404
O	14.862486	8.591306	22.610404
O	13.619235	9.630254	20.457032
O	10.002510	7.072843	20.457032
O	12.715054	7.072843	18.890944
O	12.715054	7.072843	22.023120
O	10.906692	9.630254	18.890944
Nd	9.663441	9.110780	16.737572
Nd	11.810873	6.073853	16.737572
Nd	8.589726	6.073853	18.597302
Nd	8.589726	6.073853	14.877841
Pt	11.810873	6.073853	20.457032
Pt	9.663441	9.110780	20.457032
Pt	12.884589	9.110780	18.597302
Pt	12.884589	9.110780	22.316762
