40

Mg	0.000000	0.000000	0.000000
O	1.997130	1.997130	0.000000
O	0.000000	1.997130	1.997130
O	1.997130	0.000000	1.997130
Sn_d	1.997130	1.997130	1.997130
Mg	0.000000	0.000000	3.994269
O	1.997130	1.997130	3.994269
O	0.000000	1.997130	5.991399
O	1.997130	0.000000	5.991399
Sn_d	1.997130	1.997130	5.991399
Mg	0.000000	3.994269	0.000000
O	1.997130	5.991399	0.000000
O	0.000000	5.991399	1.997130
O	1.997130	3.994269	1.997130
Sn_d	1.997130	5.991399	1.997130
Mg	0.000000	3.994269	3.994269
O	1.997130	5.991399	3.994269
O	0.000000	5.991399	5.991399
O	1.997130	3.994269	5.991399
Sn_d	1.997130	5.991399	5.991399
Mg	3.994269	0.000000	0.000000
O	5.991399	1.997130	0.000000
O	3.994269	1.997130	1.997130
O	5.991399	0.000000	1.997130
Sn_d	5.991399	1.997130	1.997130
Mg	3.994269	0.000000	3.994269
O	5.991399	1.997130	3.994269
O	3.994269	1.997130	5.991399
O	5.991399	0.000000	5.991399
Sn_d	5.991399	1.997130	5.991399
Mg	3.994269	3.994269	0.000000
O	5.991399	5.991399	0.000000
O	3.994269	5.991399	1.997130
O	5.991399	3.994269	1.997130
Sn_d	5.991399	5.991399	1.997130
Mg	3.994269	3.994269	3.994269
O	5.991399	5.991399	3.994269
O	3.994269	5.991399	5.991399
O	5.991399	3.994269	5.991399
Sn_d	5.991399	5.991399	5.991399
