112

Li	0.000000	0.000000	0.000000
Li	2.308920	-2.308858	-2.308858
O	3.590846	-1.026455	-1.026455
O	-1.026994	1.026455	-3.591261
O	1.026994	-1.026455	-3.591261
O	1.281926	1.282403	-1.282403
O	5.644834	1.026455	-1.026455
O	1.281926	3.335312	-3.335312
O	3.335914	3.335312	-1.282403
O	3.335914	1.282403	-3.335312
Sn	-1.154460	-1.154429	-3.463287
Sn	3.463380	1.154429	-1.154429
Sn	5.772300	-1.154429	-1.154429
Sn	1.154460	1.154429	-3.463287
Li	4.617840	4.617715	0.000000
Li	6.926760	2.308858	-2.308858
O	8.208686	3.591261	-1.026455
O	3.590846	5.644170	-3.591261
O	5.644834	3.591261	-3.591261
O	5.899766	5.900119	-1.282403
O	10.262673	5.644170	-1.026455
O	5.899766	7.953028	-3.335312
O	7.953753	7.953028	-1.282403
O	7.953754	5.900119	-3.335312
Sn	3.463380	3.463287	-3.463287
Sn	8.081220	5.772144	-1.154429
Sn	10.390140	3.463287	-1.154429
Sn	5.772300	5.772144	-3.463287
Li	-4.617840	0.000000	-4.617715
Li	-2.308920	-2.308858	-6.926573
O	-1.026994	-1.026455	-5.644170
O	-5.644834	1.026455	-8.208976
O	-3.590846	-1.026455	-8.208976
O	-3.335914	1.282403	-5.900119
O	1.026994	1.026455	-5.644170
O	-3.335914	3.335312	-7.953028
O	-1.281926	3.335312	-5.900119
O	-1.281926	1.282403	-7.953028
Sn	-5.772300	-1.154429	-8.081002
Sn	-1.154460	1.154429	-5.772144
Sn	1.154460	-1.154429	-5.772144
Sn	-3.463380	1.154429	-8.081002
Li	0.000000	4.617715	-4.617715
Li	2.308920	2.308858	-6.926573
O	3.590846	3.591261	-5.644170
O	-1.026994	5.644170	-8.208976
O	1.026994	3.591261	-8.208976
O	1.281926	5.900119	-5.900119
O	5.644834	5.644170	-5.644170
O	1.281926	7.953028	-7.953028
O	3.335914	7.953028	-5.900119
O	3.335914	5.900119	-7.953028
Sn	-1.154460	3.463287	-8.081002
Sn	3.463380	5.772144	-5.772144
Sn	5.772300	3.463287	-5.772144
Sn	1.154460	5.772144	-8.081002
Li	4.617840	-4.617715	0.000000
Li	6.926760	-6.926573	-2.308858
O	8.208686	-5.644170	-1.026455
O	3.590846	-3.591261	-3.591261
O	5.644834	-5.644170	-3.591261
O	5.899766	-3.335312	-1.282403
O	10.262673	-3.591261	-1.026455
O	5.899766	-1.282403	-3.335312
O	7.953753	-1.282403	-1.282403
O	7.953754	-3.335312	-3.335312
Sn	3.463380	-5.772144	-3.463287
Sn	8.081220	-3.463287	-1.154429
Sn	10.390140	-5.772144	-1.154429
Sn	5.772300	-3.463287	-3.463287
Li	9.235680	0.000000	0.000000
Li	11.544600	-2.308858	-2.308858
O	12.826526	-1.026455	-1.026455
O	8.208686	1.026455	-3.591261
O	10.262673	-1.026455	-3.591261
O	10.517606	1.282403	-1.282403
O	14.880513	1.026455	-1.026455
O	10.517606	3.335312	-3.335312
O	12.571593	3.335312	-1.282403
O	12.571593	1.282403	-3.335312
Sn	8.081220	-1.154429	-3.463287
Sn	12.699059	1.154429	-1.154429
Sn	15.007979	-1.154429	-1.154429
Sn	10.390140	1.154429	-3.463287
Li	0.000000	-4.617715	-4.617715
Li	2.308920	-6.926573	-6.926573
O	3.590846	-5.644170	-5.644170
O	-1.026994	-3.591261	-8.208976
O	1.026994	-5.644170	-8.208976
O	1.281926	-3.335312	-5.900119
O	5.644834	-3.591261	-5.644170
O	1.281926	-1.282403	-7.953028
O	3.335914	-1.282403	-5.900119
O	3.335914	-3.335312	-7.953028
Sn	-1.154460	-5.772144	-8.081002
Sn	3.463380	-3.463287	-5.772144
Sn	5.772300	-5.772144	-5.772144
Sn	1.154460	-3.463287	-8.081002
Li	4.617840	0.000000	-4.617715
Li	6.926760	-2.308858	-6.926573
O	8.208686	-1.026455	-5.644170
O	3.590846	1.026455	-8.208976
O	5.644834	-1.026455	-8.208976
O	5.899766	1.282403	-5.900119
O	10.262673	1.026455	-5.644170
O	5.899766	3.335312	-7.953028
O	7.953753	3.335312	-5.900119
O	7.953754	1.282403	-7.953028
Sn	3.463380	-1.154429	-8.081002
Sn	8.081220	1.154429	-5.772144
Sn	10.390140	-1.154429	-5.772144
Sn	5.772300	1.154429	-8.081002
