112

Ca	0.000000	0.000000	0.000000
Ca	2.453823	-2.453686	-2.453686
O	-1.083979	1.082862	-3.824500
O	3.823677	-1.082862	-1.082862
O	1.083980	-1.082862	-3.824500
O	1.369854	1.370824	-1.370824
O	5.991626	1.082862	-1.082862
O	1.369854	3.536548	-3.536548
O	3.537803	3.536548	-1.370824
O	3.537803	1.370824	-3.536548
Te	-1.226912	-1.226838	-3.680524
Te	1.226912	1.226838	-3.680524
Te	3.680745	1.226838	-1.226838
Te	6.134569	-1.226838	-1.226838
Ca	4.907656	4.907364	0.000000
Ca	7.361479	2.453678	-2.453686
O	3.823676	5.990226	-3.824500
O	8.731333	3.824502	-1.082862
O	5.991635	3.824502	-3.824500
O	6.277510	6.278188	-1.370824
O	10.899282	5.990226	-1.082862
O	6.277509	8.443912	-3.536548
O	8.445458	8.443912	-1.370824
O	8.445458	6.278188	-3.536548
Te	3.680744	3.680526	-3.680524
Te	6.134567	6.134202	-3.680524
Te	8.588401	6.134202	-1.226838
Te	11.042224	3.680526	-1.226838
Ca	-4.907656	0.000000	-4.907364
Ca	-2.453832	-2.453686	-7.361050
O	-5.991635	1.082862	-8.731864
O	-1.083978	-1.082862	-5.990226
O	-3.823676	-1.082862	-8.731864
O	-3.537802	1.370824	-6.278188
O	1.083971	1.082862	-5.990226
O	-3.537802	3.536548	-8.443912
O	-1.369853	3.536548	-6.278188
O	-1.369853	1.370824	-8.443912
Te	-6.134567	-1.226838	-8.587888
Te	-3.680744	1.226838	-8.587888
Te	-1.226910	1.226838	-6.134202
Te	1.226913	-1.226838	-6.134202
Ca	0.000000	4.907364	-4.907364
Ca	2.453823	2.453678	-7.361050
O	-1.083979	5.990226	-8.731864
O	3.823677	3.824502	-5.990226
O	1.083980	3.824502	-8.731864
O	1.369854	6.278188	-6.278188
O	5.991626	5.990226	-5.990226
O	1.369854	8.443912	-8.443912
O	3.537803	8.443912	-6.278188
O	3.537803	6.278188	-8.443912
Te	-1.226912	3.680526	-8.587888
Te	1.226912	6.134202	-8.587888
Te	3.680745	6.134202	-6.134202
Te	6.134569	3.680526	-6.134202
Ca	4.907656	-4.907364	0.000000
Ca	7.361479	-7.361050	-2.453686
O	3.823676	-3.824502	-3.824500
O	8.731333	-5.990226	-1.082862
O	5.991635	-5.990226	-3.824500
O	6.277510	-3.536540	-1.370824
O	10.899282	-3.824502	-1.082862
O	6.277509	-1.370816	-3.536548
O	8.445458	-1.370816	-1.370824
O	8.445458	-3.536540	-3.536548
Te	3.680744	-6.134202	-3.680524
Te	6.134567	-3.680526	-3.680524
Te	8.588401	-3.680526	-1.226838
Te	11.042224	-6.134202	-1.226838
Ca	9.815311	0.000000	0.000000
Ca	12.269135	-2.453686	-2.453686
O	8.731332	1.082862	-3.824500
O	13.638989	-1.082862	-1.082862
O	10.899291	-1.082862	-3.824500
O	11.185165	1.370824	-1.370824
O	15.806938	1.082862	-1.082862
O	11.185165	3.536548	-3.536548
O	13.353114	3.536548	-1.370824
O	13.353114	1.370824	-3.536548
Te	8.588399	-1.226838	-3.680524
Te	11.042223	1.226838	-3.680524
Te	13.496056	1.226838	-1.226838
Te	15.949880	-1.226838	-1.226838
Ca	0.000000	-4.907364	-4.907364
Ca	2.453823	-7.361050	-7.361050
O	-1.083979	-3.824502	-8.731864
O	3.823677	-5.990226	-5.990226
O	1.083980	-5.990226	-8.731864
O	1.369854	-3.536540	-6.278188
O	5.991626	-3.824502	-5.990226
O	1.369854	-1.370816	-8.443912
O	3.537803	-1.370816	-6.278188
O	3.537803	-3.536540	-8.443912
Te	-1.226912	-6.134202	-8.587888
Te	1.226912	-3.680526	-8.587888
Te	3.680745	-3.680526	-6.134202
Te	6.134569	-6.134202	-6.134202
Ca	4.907656	0.000000	-4.907364
Ca	7.361479	-2.453686	-7.361050
O	3.823676	1.082862	-8.731864
O	8.731333	-1.082862	-5.990226
O	5.991635	-1.082862	-8.731864
O	6.277510	1.370824	-6.278188
O	10.899282	1.082862	-5.990226
O	6.277509	3.536548	-8.443912
O	8.445458	3.536548	-6.278188
O	8.445458	1.370824	-8.443912
Te	3.680744	-1.226838	-8.587888
Te	6.134567	1.226838	-8.587888
Te	8.588401	1.226838	-6.134202
Te	11.042224	-1.226838	-6.134202
