40

Np	0.000000	0.000000	0.000000
O	2.002154	2.002154	0.000000
O	2.002154	0.000000	2.002154
O	0.000000	2.002154	2.002154
Tc	2.002154	2.002154	2.002154
Np	0.000000	0.000000	4.004308
O	2.002154	2.002154	4.004308
O	2.002154	0.000000	6.006462
O	0.000000	2.002154	6.006462
Tc	2.002154	2.002154	6.006462
Np	0.000000	4.004308	0.000000
O	2.002154	6.006462	0.000000
O	2.002154	4.004308	2.002154
O	0.000000	6.006462	2.002154
Tc	2.002154	6.006462	2.002154
Np	0.000000	4.004308	4.004308
O	2.002154	6.006462	4.004308
O	2.002154	4.004308	6.006462
O	0.000000	6.006462	6.006462
Tc	2.002154	6.006462	6.006462
Np	4.004308	0.000000	0.000000
O	6.006462	2.002154	0.000000
O	6.006462	0.000000	2.002154
O	4.004308	2.002154	2.002154
Tc	6.006462	2.002154	2.002154
Np	4.004308	0.000000	4.004308
O	6.006462	2.002154	4.004308
O	6.006462	0.000000	6.006462
O	4.004308	2.002154	6.006462
Tc	6.006462	2.002154	6.006462
Np	4.004308	4.004308	0.000000
O	6.006462	6.006462	0.000000
O	6.006462	4.004308	2.002154
O	4.004308	6.006462	2.002154
Tc	6.006462	6.006462	2.002154
Np	4.004308	4.004308	4.004308
O	6.006462	6.006462	4.004308
O	6.006462	4.004308	6.006462
O	4.004308	6.006462	6.006462
Tc	6.006462	6.006462	6.006462
