40

Fe	1.958889	1.958889	1.958889
O	0.000000	1.958889	1.958889
O	1.958889	0.000000	1.958889
O	1.958889	1.958889	0.000000
Sb	0.000000	0.000000	0.000000
Fe	1.958889	1.958889	5.876667
O	0.000000	1.958889	5.876667
O	1.958889	0.000000	5.876667
O	1.958889	1.958889	3.917778
Sb	0.000000	0.000000	3.917778
Fe	1.958889	5.876667	1.958889
O	0.000000	5.876667	1.958889
O	1.958889	3.917778	1.958889
O	1.958889	5.876667	0.000000
Sb	0.000000	3.917778	0.000000
Fe	1.958889	5.876667	5.876667
O	0.000000	5.876667	5.876667
O	1.958889	3.917778	5.876667
O	1.958889	5.876667	3.917778
Sb	0.000000	3.917778	3.917778
Fe	5.876667	1.958889	1.958889
O	3.917778	1.958889	1.958889
O	5.876667	0.000000	1.958889
O	5.876667	1.958889	0.000000
Sb	3.917778	0.000000	0.000000
Fe	5.876667	1.958889	5.876667
O	3.917778	1.958889	5.876667
O	5.876667	0.000000	5.876667
O	5.876667	1.958889	3.917778
Sb	3.917778	0.000000	3.917778
Fe	5.876667	5.876667	1.958889
O	3.917778	5.876667	1.958889
O	5.876667	3.917778	1.958889
O	5.876667	5.876667	0.000000
Sb	3.917778	3.917778	0.000000
Fe	5.876667	5.876667	5.876667
O	3.917778	5.876667	5.876667
O	5.876667	3.917778	5.876667
O	5.876667	5.876667	3.917778
Sb	3.917778	3.917778	3.917778
