112

Au	0.000000	0.000000	0.000000
Au	2.342831	-2.343695	-2.343694
Lu	-1.171415	-1.171842	-3.515537
Lu	1.171415	1.171842	-3.515537
Lu	3.514256	1.171842	-1.171842
Lu	5.857087	-1.171842	-1.171842
O	-1.023512	1.023225	-3.664154
O	3.662160	-1.023225	-1.023225
O	1.023512	-1.023225	-3.664154
O	1.319329	1.320470	-1.320470
O	5.709183	1.023225	-1.023225
O	1.319329	3.366919	-3.366919
O	3.366342	3.366919	-1.320470
O	3.366342	1.320470	-3.366919
Au	4.685670	4.687385	0.000000
Au	7.028500	2.343690	-2.343694
Lu	3.514254	3.515542	-3.515537
Lu	5.857085	5.859227	-3.515537
Lu	8.199926	5.859227	-1.171842
Lu	10.542756	3.515542	-1.171842
O	3.662158	5.710610	-3.664154
O	8.347829	3.664160	-1.023225
O	5.709181	3.664160	-3.664154
O	6.004999	6.007854	-1.320470
O	10.394853	5.710610	-1.023225
O	6.004999	8.054304	-3.366919
O	8.052012	8.054304	-1.320470
O	8.052012	6.007854	-3.366919
Au	-4.685670	0.000000	-4.687385
Au	-2.342839	-2.343695	-7.031079
Lu	-5.857085	-1.171842	-8.202921
Lu	-3.514254	1.171842	-8.202921
Lu	-1.171414	1.171842	-5.859227
Lu	1.171417	-1.171842	-5.859227
O	-5.709181	1.023225	-8.351539
O	-1.023510	-1.023225	-5.710610
O	-3.662158	-1.023225	-8.351539
O	-3.366341	1.320470	-6.007854
O	1.023513	1.023225	-5.710610
O	-3.366341	3.366919	-8.054304
O	-1.319327	3.366919	-6.007854
O	-1.319327	1.320470	-8.054304
Au	0.000000	4.687385	-4.687385
Au	2.342831	2.343690	-7.031079
Lu	-1.171415	3.515542	-8.202921
Lu	1.171415	5.859227	-8.202921
Lu	3.514256	5.859227	-5.859227
Lu	5.857087	3.515542	-5.859227
O	-1.023512	5.710610	-8.351539
O	3.662160	3.664160	-5.710610
O	1.023512	3.664160	-8.351539
O	1.319329	6.007854	-6.007854
O	5.709183	5.710610	-5.710610
O	1.319329	8.054304	-8.054304
O	3.366342	8.054304	-6.007854
O	3.366342	6.007854	-8.054304
Au	4.685670	-4.687385	0.000000
Au	7.028500	-7.031079	-2.343694
Lu	3.514254	-5.859227	-3.515537
Lu	5.857085	-3.515542	-3.515537
Lu	8.199926	-3.515542	-1.171842
Lu	10.542756	-5.859227	-1.171842
O	3.662158	-3.664160	-3.664154
O	8.347829	-5.710610	-1.023225
O	5.709181	-5.710610	-3.664154
O	6.004999	-3.366915	-1.320470
O	10.394853	-3.664160	-1.023225
O	6.004999	-1.320465	-3.366919
O	8.052012	-1.320465	-1.320470
O	8.052012	-3.366915	-3.366919
Au	9.371339	0.000000	0.000000
Au	11.714170	-2.343695	-2.343694
Lu	8.199924	-1.171842	-3.515537
Lu	10.542755	1.171842	-3.515537
Lu	12.885595	1.171842	-1.171842
Lu	15.228426	-1.171842	-1.171842
O	8.347828	1.023225	-3.664154
O	13.033499	-1.023225	-1.023225
O	10.394851	-1.023225	-3.664154
O	10.690668	1.320470	-1.320470
O	15.080522	1.023225	-1.023225
O	10.690668	3.366919	-3.366919
O	12.737682	3.366919	-1.320470
O	12.737682	1.320470	-3.366919
Au	0.000000	-4.687385	-4.687385
Au	2.342831	-7.031079	-7.031079
Lu	-1.171415	-5.859227	-8.202921
Lu	1.171415	-3.515542	-8.202921
Lu	3.514256	-3.515542	-5.859227
Lu	5.857087	-5.859227	-5.859227
O	-1.023512	-3.664160	-8.351539
O	3.662160	-5.710610	-5.710610
O	1.023512	-5.710610	-8.351539
O	1.319329	-3.366915	-6.007854
O	5.709183	-3.664160	-5.710610
O	1.319329	-1.320465	-8.054304
O	3.366342	-1.320465	-6.007854
O	3.366342	-3.366915	-8.054304
Au	4.685670	0.000000	-4.687385
Au	7.028500	-2.343695	-7.031079
Lu	3.514254	-1.171842	-8.202921
Lu	5.857085	1.171842	-8.202921
Lu	8.199926	1.171842	-5.859227
Lu	10.542756	-1.171842	-5.859227
O	3.662158	1.023225	-8.351539
O	8.347829	-1.023225	-5.710610
O	5.709181	-1.023225	-8.351539
O	6.004999	1.320470	-6.007854
O	10.394853	1.023225	-5.710610
O	6.004999	3.366919	-8.054304
O	8.052012	3.366919	-6.007854
O	8.052012	1.320470	-8.054304
