80

Sr	0.000000	0.000000	0.000000
Sr	3.944197	3.944197	3.944197
Ti	1.972098	1.972098	1.972098
Ti	5.916295	5.916295	5.916295
O	1.972098	1.972098	-0.003000
O	1.972098	1.972098	3.944197
O	1.972098	0.000000	1.972098
O	1.972098	3.944197	1.972098
O	0.000000	1.972098	1.972098
O	3.944197	1.972098	1.972098
Sr	3.944197	3.944197	0.000000
Sr	7.888393	7.888393	3.944197
Ti	5.916295	5.916295	1.972098
Ti	9.860492	9.860492	5.916295
O	5.916295	5.916295	-0.003000
O	5.916295	5.916295	3.944197
O	5.916295	3.944197	1.972098
O	5.916295	7.888393	1.972098
O	3.944197	5.916295	1.972098
O	7.888393	5.916295	1.972098
Sr	3.944197	0.000000	3.944197
Sr	7.888393	3.944197	7.888393
Ti	5.916295	1.972098	5.916295
Ti	9.860492	5.916295	9.860492
O	5.916295	1.972098	3.941197
O	5.916295	1.972098	7.888393
O	5.916295	0.000000	5.916295
O	5.916295	3.944197	5.916295
O	3.944197	1.972098	5.916295
O	7.888393	1.972098	5.916295
Sr	7.888393	3.944197	3.944197
Sr	11.832590	7.888393	7.888393
Ti	9.860492	5.916295	5.916295
Ti	13.804688	9.860492	9.860492
O	9.860492	5.916295	3.941197
O	9.860492	5.916295	7.888393
O	9.860492	3.944197	5.916295
O	9.860492	7.888393	5.916295
O	7.888393	5.916295	5.916295
O	11.832590	5.916295	5.916295
Sr	0.000000	3.944197	3.944197
Sr	3.944197	7.888393	7.888393
Ti	1.972098	5.916295	5.916295
Ti	5.916295	9.860492	9.860492
O	1.972098	5.916295	3.941197
O	1.972098	5.916295	7.888393
O	1.972098	3.944197	5.916295
O	1.972098	7.888393	5.916295
O	0.000000	5.916295	5.916295
O	3.944197	5.916295	5.916295
Sr	3.944197	7.888393	3.944197
Sr	7.888393	11.832590	7.888393
Ti	5.916295	9.860492	5.916295
Ti	9.860492	13.804688	9.860492
O	5.916295	9.860492	3.941197
O	5.916295	9.860492	7.888393
O	5.916295	7.888393	5.916295
O	5.916295	11.832590	5.916295
O	3.944197	9.860492	5.916295
O	7.888393	9.860492	5.916295
Sr	3.944197	3.944197	7.888393
Sr	7.888393	7.888393	11.832590
Ti	5.916295	5.916295	9.860492
Ti	9.860492	9.860492	13.804688
O	5.916295	5.916295	7.885393
O	5.916295	5.916295	11.832590
O	5.916295	3.944197	9.860492
O	5.916295	7.888393	9.860492
O	3.944197	5.916295	9.860492
O	7.888393	5.916295	9.860492
Sr	7.888393	7.888393	7.888393
Sr	11.832590	11.832590	11.832590
Ti	9.860492	9.860492	9.860492
Ti	13.804688	13.804688	13.804688
O	9.860492	9.860492	7.885393
O	9.860492	9.860492	11.832590
O	9.860492	7.888393	9.860492
O	9.860492	11.832590	9.860492
O	7.888393	9.860492	9.860492
O	11.832590	9.860492	9.860492
