40

Al	1.822466	1.822466	1.822466
N	0.000000	0.000000	0.000000
O	0.000000	1.822466	1.822466
O	1.822466	0.000000	1.822466
O	1.822466	1.822466	0.000000
Al	1.822466	1.822466	5.467397
N	0.000000	0.000000	3.644931
O	0.000000	1.822466	5.467397
O	1.822466	0.000000	5.467397
O	1.822466	1.822466	3.644931
Al	1.822466	5.467397	1.822466
N	0.000000	3.644931	0.000000
O	0.000000	5.467397	1.822466
O	1.822466	3.644931	1.822466
O	1.822466	5.467397	0.000000
Al	1.822466	5.467397	5.467397
N	0.000000	3.644931	3.644931
O	0.000000	5.467397	5.467397
O	1.822466	3.644931	5.467397
O	1.822466	5.467397	3.644931
Al	5.467397	1.822466	1.822466
N	3.644931	0.000000	0.000000
O	3.644931	1.822466	1.822466
O	5.467397	0.000000	1.822466
O	5.467397	1.822466	0.000000
Al	5.467397	1.822466	5.467397
N	3.644931	0.000000	3.644931
O	3.644931	1.822466	5.467397
O	5.467397	0.000000	5.467397
O	5.467397	1.822466	3.644931
Al	5.467397	5.467397	1.822466
N	3.644931	3.644931	0.000000
O	3.644931	5.467397	1.822466
O	5.467397	3.644931	1.822466
O	5.467397	5.467397	0.000000
Al	5.467397	5.467397	5.467397
N	3.644931	3.644931	3.644931
O	3.644931	5.467397	5.467397
O	5.467397	3.644931	5.467397
O	5.467397	5.467397	3.644931
