40

C	1.828555	1.828555	1.828555
O	0.000000	1.828555	1.828555
O	1.828555	0.000000	1.828555
O	1.828555	1.828555	0.000000
Sr	0.000000	0.000000	0.000000
C	1.828555	1.828555	5.485666
O	0.000000	1.828555	5.485666
O	1.828555	0.000000	5.485666
O	1.828555	1.828555	3.657111
Sr	0.000000	0.000000	3.657111
C	1.828555	5.485666	1.828555
O	0.000000	5.485666	1.828555
O	1.828555	3.657111	1.828555
O	1.828555	5.485666	0.000000
Sr	0.000000	3.657111	0.000000
C	1.828555	5.485666	5.485666
O	0.000000	5.485666	5.485666
O	1.828555	3.657111	5.485666
O	1.828555	5.485666	3.657111
Sr	0.000000	3.657111	3.657111
C	5.485666	1.828555	1.828555
O	3.657111	1.828555	1.828555
O	5.485666	0.000000	1.828555
O	5.485666	1.828555	0.000000
Sr	3.657111	0.000000	0.000000
C	5.485666	1.828555	5.485666
O	3.657111	1.828555	5.485666
O	5.485666	0.000000	5.485666
O	5.485666	1.828555	3.657111
Sr	3.657111	0.000000	3.657111
C	5.485666	5.485666	1.828555
O	3.657111	5.485666	1.828555
O	5.485666	3.657111	1.828555
O	5.485666	5.485666	0.000000
Sr	3.657111	3.657111	0.000000
C	5.485666	5.485666	5.485666
O	3.657111	5.485666	5.485666
O	5.485666	3.657111	5.485666
O	5.485666	5.485666	3.657111
Sr	3.657111	3.657111	3.657111
