120

Mg	-2.087560	0.000000	-2.087560
Mg	0.000000	-2.087560	-2.087560
Mg	2.087560	2.087560	0.000000
Mg	0.000000	2.087560	-2.087560
Mg	2.087560	0.000000	-2.087560
Mg	2.087560	-2.087560	0.000000
Mn	0.000000	0.000000	0.000000
O	1.931364	0.000000	0.000000
O	4.175120	-2.243756	0.000000
O	0.000000	0.000000	-1.931364
O	2.087560	-2.087560	-2.087560
O	2.087560	2.087560	-2.087560
O	4.175120	2.243756	0.000000
O	6.418876	-0.000000	0.000000
O	4.175120	-0.000000	-2.243756
Mg	2.087560	4.175120	-2.087560
Mg	4.175120	2.087560	-2.087560
Mg	6.262680	6.262680	0.000000
Mg	4.175120	6.262680	-2.087560
Mg	6.262680	4.175120	-2.087560
Mg	6.262680	2.087560	0.000000
Mn	4.175120	4.175120	0.000000
O	6.106484	4.175120	0.000000
O	8.350240	1.931364	0.000000
O	4.175120	4.175120	-1.931364
O	6.262680	2.087560	-2.087560
O	6.262680	6.262680	-2.087560
O	8.350240	6.418876	0.000000
O	10.593996	4.175120	0.000000
O	8.350240	4.175120	-2.243756
Mg	-6.262680	0.000000	-6.262680
Mg	-4.175120	-2.087560	-6.262680
Mg	-2.087560	2.087560	-4.175120
Mg	-4.175120	2.087560	-6.262680
Mg	-2.087560	0.000000	-6.262680
Mg	-2.087560	-2.087560	-4.175120
Mn	-4.175120	0.000000	-4.175120
O	-2.243756	0.000000	-4.175120
O	0.000000	-2.243756	-4.175120
O	-4.175120	0.000000	-6.106484
O	-2.087560	-2.087560	-6.262680
O	-2.087560	2.087560	-6.262680
O	0.000000	2.243756	-4.175120
O	2.243756	-0.000000	-4.175120
O	-0.000000	-0.000000	-6.418876
Mg	-2.087560	4.175120	-6.262680
Mg	0.000000	2.087560	-6.262680
Mg	2.087560	6.262680	-4.175120
Mg	0.000000	6.262680	-6.262680
Mg	2.087560	4.175120	-6.262680
Mg	2.087560	2.087560	-4.175120
Mn	0.000000	4.175120	-4.175120
O	1.931364	4.175120	-4.175120
O	4.175120	1.931364	-4.175120
O	0.000000	4.175120	-6.106484
O	2.087560	2.087560	-6.262680
O	2.087560	6.262680	-6.262680
O	4.175120	6.418876	-4.175120
O	6.418876	4.175120	-4.175120
O	4.175120	4.175120	-6.418876
Mg	2.087560	-4.175120	-2.087560
Mg	4.175120	-6.262680	-2.087560
Mg	6.262680	-2.087560	0.000000
Mg	4.175120	-2.087560	-2.087560
Mg	6.262680	-4.175120	-2.087560
Mg	6.262680	-6.262680	0.000000
Mn	4.175120	-4.175120	0.000000
O	6.106484	-4.175120	0.000000
O	8.350240	-6.418876	0.000000
O	4.175120	-4.175120	-1.931364
O	6.262680	-6.262680	-2.087560
O	6.262680	-2.087560	-2.087560
O	8.350240	-1.931364	0.000000
O	10.593996	-4.175120	0.000000
O	8.350240	-4.175120	-2.243756
Mg	6.262680	0.000000	-2.087560
Mg	8.350240	-2.087560	-2.087560
Mg	10.437800	2.087560	0.000000
Mg	8.350240	2.087560	-2.087560
Mg	10.437800	0.000000	-2.087560
Mg	10.437800	-2.087560	0.000000
Mn	8.350240	0.000000	0.000000
O	10.281604	0.000000	0.000000
O	12.525360	-2.243756	0.000000
O	8.350240	0.000000	-1.931364
O	10.437800	-2.087560	-2.087560
O	10.437800	2.087560	-2.087560
O	12.525360	2.243756	0.000000
O	14.769116	0.000000	0.000000
O	12.525360	0.000000	-2.243756
Mg	-2.087560	-4.175120	-6.262680
Mg	0.000000	-6.262680	-6.262680
Mg	2.087560	-2.087560	-4.175120
Mg	0.000000	-2.087560	-6.262680
Mg	2.087560	-4.175120	-6.262680
Mg	2.087560	-6.262680	-4.175120
Mn	0.000000	-4.175120	-4.175120
O	1.931364	-4.175120	-4.175120
O	4.175120	-6.418876	-4.175120
O	0.000000	-4.175120	-6.106484
O	2.087560	-6.262680	-6.262680
O	2.087560	-2.087560	-6.262680
O	4.175120	-1.931364	-4.175120
O	6.418876	-4.175120	-4.175120
O	4.175120	-4.175120	-6.418876
Mg	2.087560	0.000000	-6.262680
Mg	4.175120	-2.087560	-6.262680
Mg	6.262680	2.087560	-4.175120
Mg	4.175120	2.087560	-6.262680
Mg	6.262680	0.000000	-6.262680
Mg	6.262680	-2.087560	-4.175120
Mn	4.175120	0.000000	-4.175120
O	6.106484	0.000000	-4.175120
O	8.350240	-2.243756	-4.175120
O	4.175120	0.000000	-6.106484
O	6.262680	-2.087560	-6.262680
O	6.262680	2.087560	-6.262680
O	8.350240	2.243756	-4.175120
O	10.593996	0.000000	-4.175120
O	8.350240	0.000000	-6.418876
