40

Co	0.000000	0.000000	0.000000
Cu	1.832220	1.832220	1.832220
O	1.832220	0.000000	1.832220
O	0.000000	1.832220	1.832220
O	1.832220	1.832220	0.000000
Co	0.000000	0.000000	3.664448
Cu	1.832220	1.832220	5.496668
O	1.832220	0.000000	5.496668
O	0.000000	1.832220	5.496668
O	1.832220	1.832220	3.664448
Co	0.000000	3.664448	0.000000
Cu	1.832220	5.496668	1.832220
O	1.832220	3.664448	1.832220
O	0.000000	5.496668	1.832220
O	1.832220	5.496668	0.000000
Co	0.000000	3.664448	3.664448
Cu	1.832220	5.496668	5.496668
O	1.832220	3.664448	5.496668
O	0.000000	5.496668	5.496668
O	1.832220	5.496668	3.664448
Co	3.664448	0.000000	0.000000
Cu	5.496668	1.832220	1.832220
O	5.496668	0.000000	1.832220
O	3.664448	1.832220	1.832220
O	5.496668	1.832220	0.000000
Co	3.664448	0.000000	3.664448
Cu	5.496668	1.832220	5.496668
O	5.496668	0.000000	5.496668
O	3.664448	1.832220	5.496668
O	5.496668	1.832220	3.664448
Co	3.664448	3.664448	0.000000
Cu	5.496668	5.496668	1.832220
O	5.496668	3.664448	1.832220
O	3.664448	5.496668	1.832220
O	5.496668	5.496668	0.000000
Co	3.664448	3.664448	3.664448
Cu	5.496668	5.496668	5.496668
O	5.496668	3.664448	5.496668
O	3.664448	5.496668	5.496668
O	5.496668	5.496668	3.664448
