40

Co	0.000000	0.000000	0.000000
Cu	1.835690	1.835690	1.835690
O	1.835690	1.835690	0.000000
O	1.835690	0.000000	1.835690
O	0.000000	1.835690	1.835690
Co	0.000000	0.000000	3.671383
Cu	1.835690	1.835690	5.507073
O	1.835690	1.835690	3.671383
O	1.835690	0.000000	5.507073
O	0.000000	1.835690	5.507073
Co	0.000000	3.671383	0.000000
Cu	1.835690	5.507073	1.835690
O	1.835690	5.507073	0.000000
O	1.835690	3.671383	1.835690
O	0.000000	5.507073	1.835690
Co	0.000000	3.671383	3.671383
Cu	1.835690	5.507073	5.507073
O	1.835690	5.507073	3.671383
O	1.835690	3.671383	5.507073
O	0.000000	5.507073	5.507073
Co	3.671383	0.000000	0.000000
Cu	5.507073	1.835690	1.835690
O	5.507073	1.835690	0.000000
O	5.507073	0.000000	1.835690
O	3.671383	1.835690	1.835690
Co	3.671383	0.000000	3.671383
Cu	5.507073	1.835690	5.507073
O	5.507073	1.835690	3.671383
O	5.507073	0.000000	5.507073
O	3.671383	1.835690	5.507073
Co	3.671383	3.671383	0.000000
Cu	5.507073	5.507073	1.835690
O	5.507073	5.507073	0.000000
O	5.507073	3.671383	1.835690
O	3.671383	5.507073	1.835690
Co	3.671383	3.671383	3.671383
Cu	5.507073	5.507073	5.507073
O	5.507073	5.507073	3.671383
O	5.507073	3.671383	5.507073
O	3.671383	5.507073	5.507073
