40

Ba	0.000000	0.000000	0.000000
Br	2.112470	2.112470	2.112470
O	0.000000	2.112470	2.112470
O	2.112470	0.000000	2.112470
O	2.112470	2.112470	0.000000
Ba	0.000000	0.000000	4.224940
Br	2.112470	2.112470	6.337409
O	0.000000	2.112470	6.337409
O	2.112470	0.000000	6.337409
O	2.112470	2.112470	4.224940
Ba	0.000000	4.224940	0.000000
Br	2.112470	6.337409	2.112470
O	0.000000	6.337409	2.112470
O	2.112470	4.224940	2.112470
O	2.112470	6.337409	0.000000
Ba	0.000000	4.224940	4.224940
Br	2.112470	6.337409	6.337409
O	0.000000	6.337409	6.337409
O	2.112470	4.224940	6.337409
O	2.112470	6.337409	4.224940
Ba	4.224940	0.000000	0.000000
Br	6.337409	2.112470	2.112470
O	4.224940	2.112470	2.112470
O	6.337409	0.000000	2.112470
O	6.337409	2.112470	0.000000
Ba	4.224940	0.000000	4.224940
Br	6.337409	2.112470	6.337409
O	4.224940	2.112470	6.337409
O	6.337409	0.000000	6.337409
O	6.337409	2.112470	4.224940
Ba	4.224940	4.224940	0.000000
Br	6.337409	6.337409	2.112470
O	4.224940	6.337409	2.112470
O	6.337409	4.224940	2.112470
O	6.337409	6.337409	0.000000
Ba	4.224940	4.224940	4.224940
Br	6.337409	6.337409	6.337409
O	4.224940	6.337409	6.337409
O	6.337409	4.224940	6.337409
O	6.337409	6.337409	4.224940
