40

F	0.000000	0.000000	0.000000
O	0.000000	1.965011	1.965011
O	1.965011	0.000000	1.965011
O	1.965011	1.965011	0.000000
Ti	1.965011	1.965011	1.965011
F	0.000000	0.000000	3.930022
O	0.000000	1.965011	5.895034
O	1.965011	0.000000	5.895034
O	1.965011	1.965011	3.930022
Ti	1.965011	1.965011	5.895034
F	0.000000	3.930022	0.000000
O	0.000000	5.895034	1.965011
O	1.965011	3.930022	1.965011
O	1.965011	5.895034	0.000000
Ti	1.965011	5.895034	1.965011
F	0.000000	3.930022	3.930022
O	0.000000	5.895034	5.895034
O	1.965011	3.930022	5.895034
O	1.965011	5.895034	3.930022
Ti	1.965011	5.895034	5.895034
F	3.930022	0.000000	0.000000
O	3.930022	1.965011	1.965011
O	5.895034	0.000000	1.965011
O	5.895034	1.965011	0.000000
Ti	5.895034	1.965011	1.965011
F	3.930022	0.000000	3.930022
O	3.930022	1.965011	5.895034
O	5.895034	0.000000	5.895034
O	5.895034	1.965011	3.930022
Ti	5.895034	1.965011	5.895034
F	3.930022	3.930022	0.000000
O	3.930022	5.895034	1.965011
O	5.895034	3.930022	1.965011
O	5.895034	5.895034	0.000000
Ti	5.895034	5.895034	1.965011
F	3.930022	3.930022	3.930022
O	3.930022	5.895034	5.895034
O	5.895034	3.930022	5.895034
O	5.895034	5.895034	3.930022
Ti	5.895034	5.895034	5.895034
