40

Hf	0.000000	0.000000	0.000000
O	2.186620	2.186620	0.000000
O	0.000000	2.186620	2.186620
O	2.186620	0.000000	2.186620
Pm	2.186620	2.186620	2.186620
Hf	0.000000	0.000000	4.373247
O	2.186620	2.186620	4.373247
O	0.000000	2.186620	6.559867
O	2.186620	0.000000	6.559867
Pm	2.186620	2.186620	6.559867
Hf	0.000000	4.373247	0.000000
O	2.186620	6.559867	0.000000
O	0.000000	6.559867	2.186620
O	2.186620	4.373247	2.186620
Pm	2.186620	6.559867	2.186620
Hf	0.000000	4.373247	4.373247
O	2.186620	6.559867	4.373247
O	0.000000	6.559867	6.559867
O	2.186620	4.373247	6.559867
Pm	2.186620	6.559867	6.559867
Hf	4.373247	0.000000	0.000000
O	6.559867	2.186620	0.000000
O	4.373247	2.186620	2.186620
O	6.559867	0.000000	2.186620
Pm	6.559867	2.186620	2.186620
Hf	4.373247	0.000000	4.373247
O	6.559867	2.186620	4.373247
O	4.373247	2.186620	6.559867
O	6.559867	0.000000	6.559867
Pm	6.559867	2.186620	6.559867
Hf	4.373247	4.373247	0.000000
O	6.559867	6.559867	0.000000
O	4.373247	6.559867	2.186620
O	6.559867	4.373247	2.186620
Pm	6.559867	6.559867	2.186620
Hf	4.373247	4.373247	4.373247
O	6.559867	6.559867	4.373247
O	4.373247	6.559867	6.559867
O	6.559867	4.373247	6.559867
Pm	6.559867	6.559867	6.559867
