40

O	2.100690	2.100690	0.000000
O	0.000000	2.100690	2.100690
O	2.100690	0.000000	2.100690
Tc_pv	0.000000	0.000000	0.000000
Tm_3	2.100690	2.100690	2.100690
O	2.100690	2.100690	4.201377
O	0.000000	2.100690	6.302067
O	2.100690	0.000000	6.302067
Tc_pv	0.000000	0.000000	4.201377
Tm_3	2.100690	2.100690	6.302067
O	2.100690	6.302067	0.000000
O	0.000000	6.302067	2.100690
O	2.100690	4.201377	2.100690
Tc_pv	0.000000	4.201377	0.000000
Tm_3	2.100690	6.302067	2.100690
O	2.100690	6.302067	4.201377
O	0.000000	6.302067	6.302067
O	2.100690	4.201377	6.302067
Tc_pv	0.000000	4.201377	4.201377
Tm_3	2.100690	6.302067	6.302067
O	6.302067	2.100690	0.000000
O	4.201377	2.100690	2.100690
O	6.302067	0.000000	2.100690
Tc_pv	4.201377	0.000000	0.000000
Tm_3	6.302067	2.100690	2.100690
O	6.302067	2.100690	4.201377
O	4.201377	2.100690	6.302067
O	6.302067	0.000000	6.302067
Tc_pv	4.201377	0.000000	4.201377
Tm_3	6.302067	2.100690	6.302067
O	6.302067	6.302067	0.000000
O	4.201377	6.302067	2.100690
O	6.302067	4.201377	2.100690
Tc_pv	4.201377	4.201377	0.000000
Tm_3	6.302067	6.302067	2.100690
O	6.302067	6.302067	4.201377
O	4.201377	6.302067	6.302067
O	6.302067	4.201377	6.302067
Tc_pv	4.201377	4.201377	4.201377
Tm_3	6.302067	6.302067	6.302067
