40

Nd	0.000000	0.000000	0.000000
O	2.083035	2.083035	0.000000
O	2.083035	0.000000	2.083035
O	0.000000	2.083035	2.083035
Yb	2.083035	2.083035	2.083035
Nd	0.000000	0.000000	4.166069
O	2.083035	2.083035	4.166069
O	2.083035	0.000000	6.249104
O	0.000000	2.083035	6.249104
Yb	2.083035	2.083035	6.249104
Nd	0.000000	4.166069	0.000000
O	2.083035	6.249104	0.000000
O	2.083035	4.166069	2.083035
O	0.000000	6.249104	2.083035
Yb	2.083035	6.249104	2.083035
Nd	0.000000	4.166069	4.166069
O	2.083035	6.249104	4.166069
O	2.083035	4.166069	6.249104
O	0.000000	6.249104	6.249104
Yb	2.083035	6.249104	6.249104
Nd	4.166069	0.000000	0.000000
O	6.249104	2.083035	0.000000
O	6.249104	0.000000	2.083035
O	4.166069	2.083035	2.083035
Yb	6.249104	2.083035	2.083035
Nd	4.166069	0.000000	4.166069
O	6.249104	2.083035	4.166069
O	6.249104	0.000000	6.249104
O	4.166069	2.083035	6.249104
Yb	6.249104	2.083035	6.249104
Nd	4.166069	4.166069	0.000000
O	6.249104	6.249104	0.000000
O	6.249104	4.166069	2.083035
O	4.166069	6.249104	2.083035
Yb	6.249104	6.249104	2.083035
Nd	4.166069	4.166069	4.166069
O	6.249104	6.249104	4.166069
O	6.249104	4.166069	6.249104
O	4.166069	6.249104	6.249104
Yb	6.249104	6.249104	6.249104
