40

O	0.000000	1.933095	1.933095
O	1.933095	0.000000	1.933095
O	1.933095	1.933095	0.000000
P	1.933095	1.933095	1.933095
Sb	0.000000	0.000000	0.000000
O	0.000000	1.933095	5.799286
O	1.933095	0.000000	5.799286
O	1.933095	1.933095	3.866190
P	1.933095	1.933095	5.799286
Sb	0.000000	0.000000	3.866190
O	0.000000	5.799286	1.933095
O	1.933095	3.866190	1.933095
O	1.933095	5.799286	0.000000
P	1.933095	5.799286	1.933095
Sb	0.000000	3.866190	0.000000
O	0.000000	5.799286	5.799286
O	1.933095	3.866190	5.799286
O	1.933095	5.799286	3.866190
P	1.933095	5.799286	5.799286
Sb	0.000000	3.866190	3.866190
O	3.866190	1.933095	1.933095
O	5.799286	0.000000	1.933095
O	5.799286	1.933095	0.000000
P	5.799286	1.933095	1.933095
Sb	3.866190	0.000000	0.000000
O	3.866190	1.933095	5.799286
O	5.799286	0.000000	5.799286
O	5.799286	1.933095	3.866190
P	5.799286	1.933095	5.799286
Sb	3.866190	0.000000	3.866190
O	3.866190	5.799286	1.933095
O	5.799286	3.866190	1.933095
O	5.799286	5.799286	0.000000
P	5.799286	5.799286	1.933095
Sb	3.866190	3.866190	0.000000
O	3.866190	5.799286	5.799286
O	5.799286	3.866190	5.799286
O	5.799286	5.799286	3.866190
P	5.799286	5.799286	5.799286
Sb	3.866190	3.866190	3.866190
