40

Na	1.998518	1.998518	1.998518
O	0.000000	1.998518	1.998518
O	1.998518	0.000000	1.998518
O	1.998518	1.998518	0.000000
Te	0.000000	0.000000	0.000000
Na	1.998518	1.998518	5.995555
O	0.000000	1.998518	5.995555
O	1.998518	0.000000	5.995555
O	1.998518	1.998518	3.997037
Te	0.000000	0.000000	3.997037
Na	1.998518	5.995555	1.998518
O	0.000000	5.995555	1.998518
O	1.998518	3.997037	1.998518
O	1.998518	5.995555	0.000000
Te	0.000000	3.997037	0.000000
Na	1.998518	5.995555	5.995555
O	0.000000	5.995555	5.995555
O	1.998518	3.997037	5.995555
O	1.998518	5.995555	3.997037
Te	0.000000	3.997037	3.997037
Na	5.995555	1.998518	1.998518
O	3.997037	1.998518	1.998518
O	5.995555	0.000000	1.998518
O	5.995555	1.998518	0.000000
Te	3.997037	0.000000	0.000000
Na	5.995555	1.998518	5.995555
O	3.997037	1.998518	5.995555
O	5.995555	0.000000	5.995555
O	5.995555	1.998518	3.997037
Te	3.997037	0.000000	3.997037
Na	5.995555	5.995555	1.998518
O	3.997037	5.995555	1.998518
O	5.995555	3.997037	1.998518
O	5.995555	5.995555	0.000000
Te	3.997037	3.997037	0.000000
Na	5.995555	5.995555	5.995555
O	3.997037	5.995555	5.995555
O	5.995555	3.997037	5.995555
O	5.995555	5.995555	3.997037
Te	3.997037	3.997037	3.997037
