40

F	0.000000	2.183315	2.183315
F	2.183315	0.000000	2.183315
F	2.183315	2.183315	0.000000
O	0.000000	0.000000	0.000000
Sb	2.183315	2.183315	2.183315
F	0.000000	2.183315	6.549944
F	2.183315	0.000000	6.549944
F	2.183315	2.183315	4.366629
O	0.000000	0.000000	4.366629
Sb	2.183315	2.183315	6.549944
F	0.000000	6.549944	2.183315
F	2.183315	4.366629	2.183315
F	2.183315	6.549944	0.000000
O	0.000000	4.366629	0.000000
Sb	2.183315	6.549944	2.183315
F	0.000000	6.549944	6.549944
F	2.183315	4.366629	6.549944
F	2.183315	6.549944	4.366629
O	0.000000	4.366629	4.366629
Sb	2.183315	6.549944	6.549944
F	4.366629	2.183315	2.183315
F	6.549944	0.000000	2.183315
F	6.549944	2.183315	0.000000
O	4.366629	0.000000	0.000000
Sb	6.549944	2.183315	2.183315
F	4.366629	2.183315	6.549944
F	6.549944	0.000000	6.549944
F	6.549944	2.183315	4.366629
O	4.366629	0.000000	4.366629
Sb	6.549944	2.183315	6.549944
F	4.366629	6.549944	2.183315
F	6.549944	4.366629	2.183315
F	6.549944	6.549944	0.000000
O	4.366629	4.366629	0.000000
Sb	6.549944	6.549944	2.183315
F	4.366629	6.549944	6.549944
F	6.549944	4.366629	6.549944
F	6.549944	6.549944	4.366629
O	4.366629	4.366629	4.366629
Sb	6.549944	6.549944	6.549944
