40

F	0.000000	2.043453	2.043453
F	2.043453	0.000000	2.043453
F	2.043453	2.043453	0.000000
O	2.043453	2.043453	2.043453
Sb	0.000000	0.000000	0.000000
F	0.000000	2.043453	6.130358
F	2.043453	0.000000	6.130358
F	2.043453	2.043453	4.086905
O	2.043453	2.043453	6.130358
Sb	0.000000	0.000000	4.086905
F	0.000000	6.130358	2.043453
F	2.043453	4.086905	2.043453
F	2.043453	6.130358	0.000000
O	2.043453	6.130358	2.043453
Sb	0.000000	4.086905	0.000000
F	0.000000	6.130358	6.130358
F	2.043453	4.086905	6.130358
F	2.043453	6.130358	4.086905
O	2.043453	6.130358	6.130358
Sb	0.000000	4.086905	4.086905
F	4.086905	2.043453	2.043453
F	6.130358	0.000000	2.043453
F	6.130358	2.043453	0.000000
O	6.130358	2.043453	2.043453
Sb	4.086905	0.000000	0.000000
F	4.086905	2.043453	6.130358
F	6.130358	0.000000	6.130358
F	6.130358	2.043453	4.086905
O	6.130358	2.043453	6.130358
Sb	4.086905	0.000000	4.086905
F	4.086905	6.130358	2.043453
F	6.130358	4.086905	2.043453
F	6.130358	6.130358	0.000000
O	6.130358	6.130358	2.043453
Sb	4.086905	4.086905	0.000000
F	4.086905	6.130358	6.130358
F	6.130358	4.086905	6.130358
F	6.130358	6.130358	4.086905
O	6.130358	6.130358	6.130358
Sb	4.086905	4.086905	4.086905
