40

F	0.000000	1.917833	1.917833
F	1.917833	0.000000	1.917833
F	1.917833	1.917833	0.000000
Na	0.000000	0.000000	0.000000
O	1.917833	1.917833	1.917833
F	0.000000	1.917833	5.753499
F	1.917833	0.000000	5.753499
F	1.917833	1.917833	3.835666
Na	0.000000	0.000000	3.835666
O	1.917833	1.917833	5.753499
F	0.000000	5.753499	1.917833
F	1.917833	3.835666	1.917833
F	1.917833	5.753499	0.000000
Na	0.000000	3.835666	0.000000
O	1.917833	5.753499	1.917833
F	0.000000	5.753499	5.753499
F	1.917833	3.835666	5.753499
F	1.917833	5.753499	3.835666
Na	0.000000	3.835666	3.835666
O	1.917833	5.753499	5.753499
F	3.835666	1.917833	1.917833
F	5.753499	0.000000	1.917833
F	5.753499	1.917833	0.000000
Na	3.835666	0.000000	0.000000
O	5.753499	1.917833	1.917833
F	3.835666	1.917833	5.753499
F	5.753499	0.000000	5.753499
F	5.753499	1.917833	3.835666
Na	3.835666	0.000000	3.835666
O	5.753499	1.917833	5.753499
F	3.835666	5.753499	1.917833
F	5.753499	3.835666	1.917833
F	5.753499	5.753499	0.000000
Na	3.835666	3.835666	0.000000
O	5.753499	5.753499	1.917833
F	3.835666	5.753499	5.753499
F	5.753499	3.835666	5.753499
F	5.753499	5.753499	3.835666
Na	3.835666	3.835666	3.835666
O	5.753499	5.753499	5.753499
