40

O	1.930630	1.930630	0.000000
O	0.000000	1.930630	1.930630
O	1.930630	0.000000	1.930630
Tc_pv	0.000000	0.000000	0.000000
Ti	1.930630	1.930630	1.930630
O	1.930630	1.930630	3.861260
O	0.000000	1.930630	5.791890
O	1.930630	0.000000	5.791890
Tc_pv	0.000000	0.000000	3.861260
Ti	1.930630	1.930630	5.791890
O	1.930630	5.791890	0.000000
O	0.000000	5.791890	1.930630
O	1.930630	3.861260	1.930630
Tc_pv	0.000000	3.861260	0.000000
Ti	1.930630	5.791890	1.930630
O	1.930630	5.791890	3.861260
O	0.000000	5.791890	5.791890
O	1.930630	3.861260	5.791890
Tc_pv	0.000000	3.861260	3.861260
Ti	1.930630	5.791890	5.791890
O	5.791890	1.930630	0.000000
O	3.861260	1.930630	1.930630
O	5.791890	0.000000	1.930630
Tc_pv	3.861260	0.000000	0.000000
Ti	5.791890	1.930630	1.930630
O	5.791890	1.930630	3.861260
O	3.861260	1.930630	5.791890
O	5.791890	0.000000	5.791890
Tc_pv	3.861260	0.000000	3.861260
Ti	5.791890	1.930630	5.791890
O	5.791890	5.791890	0.000000
O	3.861260	5.791890	1.930630
O	5.791890	3.861260	1.930630
Tc_pv	3.861260	3.861260	0.000000
Ti	5.791890	5.791890	1.930630
O	5.791890	5.791890	3.861260
O	3.861260	5.791890	5.791890
O	5.791890	3.861260	5.791890
Tc_pv	3.861260	3.861260	3.861260
Ti	5.791890	5.791890	5.791890
