40

Be	0.000000	0.000000	0.000000
Cl	1.887307	1.887307	1.887307
O	0.000000	1.887307	1.887307
O	1.887307	0.000000	1.887307
O	1.887307	1.887307	0.000000
Be	0.000000	0.000000	3.774613
Cl	1.887307	1.887307	5.661920
O	0.000000	1.887307	5.661920
O	1.887307	0.000000	5.661920
O	1.887307	1.887307	3.774613
Be	0.000000	3.774613	0.000000
Cl	1.887307	5.661920	1.887307
O	0.000000	5.661920	1.887307
O	1.887307	3.774613	1.887307
O	1.887307	5.661920	0.000000
Be	0.000000	3.774613	3.774613
Cl	1.887307	5.661920	5.661920
O	0.000000	5.661920	5.661920
O	1.887307	3.774613	5.661920
O	1.887307	5.661920	3.774613
Be	3.774613	0.000000	0.000000
Cl	5.661920	1.887307	1.887307
O	3.774613	1.887307	1.887307
O	5.661920	0.000000	1.887307
O	5.661920	1.887307	0.000000
Be	3.774613	0.000000	3.774613
Cl	5.661920	1.887307	5.661920
O	3.774613	1.887307	5.661920
O	5.661920	0.000000	5.661920
O	5.661920	1.887307	3.774613
Be	3.774613	3.774613	0.000000
Cl	5.661920	5.661920	1.887307
O	3.774613	5.661920	1.887307
O	5.661920	3.774613	1.887307
O	5.661920	5.661920	0.000000
Be	3.774613	3.774613	3.774613
Cl	5.661920	5.661920	5.661920
O	3.774613	5.661920	5.661920
O	5.661920	3.774613	5.661920
O	5.661920	5.661920	3.774613
