96

O	2.308449	3.390171	0.540861
O	3.390171	0.540861	2.308449
O	5.157760	5.157760	5.157760
O	0.540861	2.308449	3.390171
S	5.237176	2.387866	0.461445
S	0.461445	5.237176	2.387866
S	2.387866	0.461445	5.237176
S	3.310755	3.310755	3.310755
Hf	3.873282	4.674649	1.023972
Hf	4.674649	1.023972	3.873282
Hf	1.023972	3.873282	4.674649
Hf	1.825339	1.825339	1.825339
O	2.308449	3.390171	6.239481
O	3.390171	0.540861	8.007070
O	5.157760	5.157760	10.856380
O	0.540861	2.308449	9.088791
S	5.237176	2.387866	6.160065
S	0.461445	5.237176	8.086486
S	2.387866	0.461445	10.935796
S	3.310755	3.310755	9.009375
Hf	3.873282	4.674649	6.722592
Hf	4.674649	1.023972	9.571902
Hf	1.023972	3.873282	10.373269
Hf	1.825339	1.825339	7.523959
O	2.308449	9.088791	0.540861
O	3.390171	6.239481	2.308449
O	5.157760	10.856380	5.157760
O	0.540861	8.007070	3.390171
S	5.237176	8.086486	0.461445
S	0.461445	10.935796	2.387866
S	2.387866	6.160065	5.237176
S	3.310755	9.009375	3.310755
Hf	3.873282	10.373269	1.023972
Hf	4.674649	6.722592	3.873282
Hf	1.023972	9.571902	4.674649
Hf	1.825339	7.523959	1.825339
O	2.308449	9.088791	6.239481
O	3.390171	6.239481	8.007070
O	5.157760	10.856380	10.856380
O	0.540861	8.007070	9.088791
S	5.237176	8.086486	6.160065
S	0.461445	10.935796	8.086486
S	2.387866	6.160065	10.935796
S	3.310755	9.009375	9.009375
Hf	3.873282	10.373269	6.722592
Hf	4.674649	6.722592	9.571902
Hf	1.023972	9.571902	10.373269
Hf	1.825339	7.523959	7.523959
O	8.007070	3.390171	0.540861
O	9.088791	0.540861	2.308449
O	10.856380	5.157760	5.157760
O	6.239481	2.308449	3.390171
S	10.935796	2.387866	0.461445
S	6.160065	5.237176	2.387866
S	8.086486	0.461445	5.237176
S	9.009375	3.310755	3.310755
Hf	9.571902	4.674649	1.023972
Hf	10.373269	1.023972	3.873282
Hf	6.722592	3.873282	4.674649
Hf	7.523959	1.825339	1.825339
O	8.007070	3.390171	6.239481
O	9.088791	0.540861	8.007070
O	10.856380	5.157760	10.856380
O	6.239481	2.308449	9.088791
S	10.935796	2.387866	6.160065
S	6.160065	5.237176	8.086486
S	8.086486	0.461445	10.935796
S	9.009375	3.310755	9.009375
Hf	9.571902	4.674649	6.722592
Hf	10.373269	1.023972	9.571902
Hf	6.722592	3.873282	10.373269
Hf	7.523959	1.825339	7.523959
O	8.007070	9.088791	0.540861
O	9.088791	6.239481	2.308449
O	10.856380	10.856380	5.157760
O	6.239481	8.007070	3.390171
S	10.935796	8.086486	0.461445
S	6.160065	10.935796	2.387866
S	8.086486	6.160065	5.237176
S	9.009375	9.009375	3.310755
Hf	9.571902	10.373269	1.023972
Hf	10.373269	6.722592	3.873282
Hf	6.722592	9.571902	4.674649
Hf	7.523959	7.523959	1.825339
O	8.007070	9.088791	6.239481
O	9.088791	6.239481	8.007070
O	10.856380	10.856380	10.856380
O	6.239481	8.007070	9.088791
S	10.935796	8.086486	6.160065
S	6.160065	10.935796	8.086486
S	8.086486	6.160065	10.935796
S	9.009375	9.009375	9.009375
Hf	9.571902	10.373269	6.722592
Hf	10.373269	6.722592	9.571902
Hf	6.722592	9.571902	10.373269
Hf	7.523959	7.523959	7.523959
