112

Ba	0.000000	0.000000	0.000000
Ba	2.249656	-2.250792	-2.250792
Li	-1.124833	-1.125396	-3.376188
Li	5.624144	-1.125396	-1.125396
Li	3.374488	1.125396	-1.125396
Li	1.124833	1.125396	-3.376188
O	-0.876479	0.875247	-3.626337
O	3.622842	-0.875247	-0.875247
O	0.876479	-0.875247	-3.626337
O	1.373176	1.375545	-1.375545
O	5.375800	0.875247	-0.875247
O	1.373176	3.126038	-3.126038
O	3.126135	3.126038	-1.375545
O	3.126135	1.375545	-3.126038
Ba	4.499319	4.501585	0.000000
Ba	6.748974	2.250793	-2.250792
Li	3.374486	3.376189	-3.376188
Li	10.123463	3.376189	-1.125396
Li	7.873807	5.626981	-1.125396
Li	5.624151	5.626981	-3.376188
O	3.622839	5.376832	-3.626337
O	8.122160	3.626338	-0.875247
O	5.375798	3.626338	-3.626337
O	5.872495	5.877130	-1.375545
O	9.875119	5.376832	-0.875247
O	5.872495	7.627623	-3.126038
O	7.625453	7.627623	-1.375545
O	7.625453	5.877130	-3.126038
Ba	-4.499319	0.000000	-4.501585
Ba	-2.249663	-2.250792	-6.752377
Li	-5.624151	-1.125396	-7.877773
Li	1.124825	-1.125396	-5.626981
Li	-1.124830	1.125396	-5.626981
Li	-3.374486	1.125396	-7.877773
O	-5.375798	0.875247	-8.127922
O	-0.876477	-0.875247	-5.376832
O	-3.622839	-0.875247	-8.127922
O	-3.126142	1.375545	-5.877130
O	0.876482	0.875247	-5.376832
O	-3.126142	3.126038	-7.627623
O	-1.373184	3.126038	-5.877130
O	-1.373184	1.375545	-7.627623
Ba	0.000000	4.501585	-4.501585
Ba	2.249656	2.250793	-6.752377
Li	-1.124833	3.376189	-7.877773
Li	5.624144	3.376189	-5.626981
Li	3.374488	5.626981	-5.626981
Li	1.124833	5.626981	-7.877773
O	-0.876479	5.376832	-8.127922
O	3.622842	3.626338	-5.376832
O	0.876479	3.626338	-8.127922
O	1.373176	5.877130	-5.877130
O	5.375800	5.376832	-5.376832
O	1.373176	7.627623	-7.627623
O	3.126135	7.627623	-5.877130
O	3.126135	5.877130	-7.627623
Ba	4.499319	-4.501585	0.000000
Ba	6.748974	-6.752377	-2.250792
Li	3.374486	-5.626981	-3.376188
Li	10.123463	-5.626981	-1.125396
Li	7.873807	-3.376189	-1.125396
Li	5.624151	-3.376189	-3.376188
O	3.622839	-3.626338	-3.626337
O	8.122160	-5.376832	-0.875247
O	5.375798	-5.376832	-3.626337
O	5.872495	-3.126040	-1.375545
O	9.875119	-3.626338	-0.875247
O	5.872495	-1.375547	-3.126038
O	7.625453	-1.375547	-1.375545
O	7.625453	-3.126040	-3.126038
Ba	8.998637	0.000000	0.000000
Ba	11.248293	-2.250792	-2.250792
Li	7.873804	-1.125396	-3.376188
Li	14.622781	-1.125396	-1.125396
Li	12.373126	1.125396	-1.125396
Li	10.123470	1.125396	-3.376188
O	8.122158	0.875247	-3.626337
O	12.621479	-0.875247	-0.875247
O	9.875116	-0.875247	-3.626337
O	10.371814	1.375545	-1.375545
O	14.374438	0.875247	-0.875247
O	10.371814	3.126038	-3.126038
O	12.124772	3.126038	-1.375545
O	12.124772	1.375545	-3.126038
Ba	0.000000	-4.501585	-4.501585
Ba	2.249656	-6.752377	-6.752377
Li	-1.124833	-5.626981	-7.877773
Li	5.624144	-5.626981	-5.626981
Li	3.374488	-3.376189	-5.626981
Li	1.124833	-3.376189	-7.877773
O	-0.876479	-3.626338	-8.127922
O	3.622842	-5.376832	-5.376832
O	0.876479	-5.376832	-8.127922
O	1.373176	-3.126040	-5.877130
O	5.375800	-3.626338	-5.376832
O	1.373176	-1.375547	-7.627623
O	3.126135	-1.375547	-5.877130
O	3.126135	-3.126040	-7.627623
Ba	4.499319	0.000000	-4.501585
Ba	6.748974	-2.250792	-6.752377
Li	3.374486	-1.125396	-7.877773
Li	10.123463	-1.125396	-5.626981
Li	7.873807	1.125396	-5.626981
Li	5.624151	1.125396	-7.877773
O	3.622839	0.875247	-8.127922
O	8.122160	-0.875247	-5.376832
O	5.375798	-0.875247	-8.127922
O	5.872495	1.375545	-5.877130
O	9.875119	0.875247	-5.376832
O	5.872495	3.126038	-7.627623
O	7.625453	3.126038	-5.877130
O	7.625453	1.375545	-7.627623
