40

Co	1.852585	1.852585	1.852585
Mg	0.000000	0.000000	0.000000
O	0.000000	1.852585	1.852585
O	1.852585	0.000000	1.852585
O	1.852585	1.852585	0.000000
Co	1.852585	1.852585	5.557755
Mg	0.000000	0.000000	3.705170
O	0.000000	1.852585	5.557755
O	1.852585	0.000000	5.557755
O	1.852585	1.852585	3.705170
Co	1.852585	5.557755	1.852585
Mg	0.000000	3.705170	0.000000
O	0.000000	5.557755	1.852585
O	1.852585	3.705170	1.852585
O	1.852585	5.557755	0.000000
Co	1.852585	5.557755	5.557755
Mg	0.000000	3.705170	3.705170
O	0.000000	5.557755	5.557755
O	1.852585	3.705170	5.557755
O	1.852585	5.557755	3.705170
Co	5.557755	1.852585	1.852585
Mg	3.705170	0.000000	0.000000
O	3.705170	1.852585	1.852585
O	5.557755	0.000000	1.852585
O	5.557755	1.852585	0.000000
Co	5.557755	1.852585	5.557755
Mg	3.705170	0.000000	3.705170
O	3.705170	1.852585	5.557755
O	5.557755	0.000000	5.557755
O	5.557755	1.852585	3.705170
Co	5.557755	5.557755	1.852585
Mg	3.705170	3.705170	0.000000
O	3.705170	5.557755	1.852585
O	5.557755	3.705170	1.852585
O	5.557755	5.557755	0.000000
Co	5.557755	5.557755	5.557755
Mg	3.705170	3.705170	3.705170
O	3.705170	5.557755	5.557755
O	5.557755	3.705170	5.557755
O	5.557755	5.557755	3.705170
