40

I	2.148009	2.148009	2.148009
O	0.000000	2.148009	2.148009
O	2.148009	0.000000	2.148009
O	2.148009	2.148009	0.000000
Sb	0.000000	0.000000	0.000000
I	2.148009	2.148009	6.444026
O	0.000000	2.148009	6.444026
O	2.148009	0.000000	6.444026
O	2.148009	2.148009	4.296018
Sb	0.000000	0.000000	4.296018
I	2.148009	6.444026	2.148009
O	0.000000	6.444026	2.148009
O	2.148009	4.296018	2.148009
O	2.148009	6.444026	0.000000
Sb	0.000000	4.296018	0.000000
I	2.148009	6.444026	6.444026
O	0.000000	6.444026	6.444026
O	2.148009	4.296018	6.444026
O	2.148009	6.444026	4.296018
Sb	0.000000	4.296018	4.296018
I	6.444026	2.148009	2.148009
O	4.296018	2.148009	2.148009
O	6.444026	0.000000	2.148009
O	6.444026	2.148009	0.000000
Sb	4.296018	0.000000	0.000000
I	6.444026	2.148009	6.444026
O	4.296018	2.148009	6.444026
O	6.444026	0.000000	6.444026
O	6.444026	2.148009	4.296018
Sb	4.296018	0.000000	4.296018
I	6.444026	6.444026	2.148009
O	4.296018	6.444026	2.148009
O	6.444026	4.296018	2.148009
O	6.444026	6.444026	0.000000
Sb	4.296018	4.296018	0.000000
I	6.444026	6.444026	6.444026
O	4.296018	6.444026	6.444026
O	6.444026	4.296018	6.444026
O	6.444026	6.444026	4.296018
Sb	4.296018	4.296018	4.296018
