40

As	1.965025	1.965025	1.965025
In	0.000000	0.000000	0.000000
O	0.000000	1.965025	1.965025
O	1.965025	0.000000	1.965025
O	1.965025	1.965025	0.000000
As	1.965025	1.965025	5.895074
In	0.000000	0.000000	3.930049
O	0.000000	1.965025	5.895074
O	1.965025	0.000000	5.895074
O	1.965025	1.965025	3.930049
As	1.965025	5.895074	1.965025
In	0.000000	3.930049	0.000000
O	0.000000	5.895074	1.965025
O	1.965025	3.930049	1.965025
O	1.965025	5.895074	0.000000
As	1.965025	5.895074	5.895074
In	0.000000	3.930049	3.930049
O	0.000000	5.895074	5.895074
O	1.965025	3.930049	5.895074
O	1.965025	5.895074	3.930049
As	5.895074	1.965025	1.965025
In	3.930049	0.000000	0.000000
O	3.930049	1.965025	1.965025
O	5.895074	0.000000	1.965025
O	5.895074	1.965025	0.000000
As	5.895074	1.965025	5.895074
In	3.930049	0.000000	3.930049
O	3.930049	1.965025	5.895074
O	5.895074	0.000000	5.895074
O	5.895074	1.965025	3.930049
As	5.895074	5.895074	1.965025
In	3.930049	3.930049	0.000000
O	3.930049	5.895074	1.965025
O	5.895074	3.930049	1.965025
O	5.895074	5.895074	0.000000
As	5.895074	5.895074	5.895074
In	3.930049	3.930049	3.930049
O	3.930049	5.895074	5.895074
O	5.895074	3.930049	5.895074
O	5.895074	5.895074	3.930049
