40

As	0.000000	0.000000	0.000000
In	2.065720	2.065720	2.065720
O	2.065720	2.065720	0.000000
O	2.065720	0.000000	2.065720
O	0.000000	2.065720	2.065720
As	0.000000	0.000000	4.131440
In	2.065720	2.065720	6.197160
O	2.065720	2.065720	4.131440
O	2.065720	0.000000	6.197160
O	0.000000	2.065720	6.197160
As	0.000000	4.131440	0.000000
In	2.065720	6.197160	2.065720
O	2.065720	6.197160	0.000000
O	2.065720	4.131440	2.065720
O	0.000000	6.197160	2.065720
As	0.000000	4.131440	4.131440
In	2.065720	6.197160	6.197160
O	2.065720	6.197160	4.131440
O	2.065720	4.131440	6.197160
O	0.000000	6.197160	6.197160
As	4.131440	0.000000	0.000000
In	6.197160	2.065720	2.065720
O	6.197160	2.065720	0.000000
O	6.197160	0.000000	2.065720
O	4.131440	2.065720	2.065720
As	4.131440	0.000000	4.131440
In	6.197160	2.065720	6.197160
O	6.197160	2.065720	4.131440
O	6.197160	0.000000	6.197160
O	4.131440	2.065720	6.197160
As	4.131440	4.131440	0.000000
In	6.197160	6.197160	2.065720
O	6.197160	6.197160	0.000000
O	6.197160	4.131440	2.065720
O	4.131440	6.197160	2.065720
As	4.131440	4.131440	4.131440
In	6.197160	6.197160	6.197160
O	6.197160	6.197160	4.131440
O	6.197160	4.131440	6.197160
O	4.131440	6.197160	6.197160
