40

La	2.188934	2.188934	2.188934
Li	0.000000	0.000000	0.000000
O	2.188934	2.188934	0.000000
O	2.188934	0.000000	2.188934
O	0.000000	2.188934	2.188934
La	2.188934	2.188934	6.566796
Li	0.000000	0.000000	4.377862
O	2.188934	2.188934	4.377862
O	2.188934	0.000000	6.566796
O	0.000000	2.188934	6.566796
La	2.188934	6.566796	2.188934
Li	0.000000	4.377862	0.000000
O	2.188934	6.566796	0.000000
O	2.188934	4.377862	2.188934
O	0.000000	6.566796	2.188934
La	2.188934	6.566796	6.566796
Li	0.000000	4.377862	4.377862
O	2.188934	6.566796	4.377862
O	2.188934	4.377862	6.566796
O	0.000000	6.566796	6.566796
La	6.566796	2.188934	2.188934
Li	4.377862	0.000000	0.000000
O	6.566796	2.188934	0.000000
O	6.566796	0.000000	2.188934
O	4.377862	2.188934	2.188934
La	6.566796	2.188934	6.566796
Li	4.377862	0.000000	4.377862
O	6.566796	2.188934	4.377862
O	6.566796	0.000000	6.566796
O	4.377862	2.188934	6.566796
La	6.566796	6.566796	2.188934
Li	4.377862	4.377862	0.000000
O	6.566796	6.566796	0.000000
O	6.566796	4.377862	2.188934
O	4.377862	6.566796	2.188934
La	6.566796	6.566796	6.566796
Li	4.377862	4.377862	4.377862
O	6.566796	6.566796	4.377862
O	6.566796	4.377862	6.566796
O	4.377862	6.566796	6.566796
