40

Ag	0.000000	0.000000	0.000000
O	1.939430	0.000000	1.939430
O	0.000000	1.939430	1.939430
O	1.939430	1.939430	0.000000
Ti	1.939430	1.939430	1.939430
Ag	0.000000	0.000000	3.878868
O	1.939430	0.000000	5.818298
O	0.000000	1.939430	5.818298
O	1.939430	1.939430	3.878868
Ti	1.939430	1.939430	5.818298
Ag	0.000000	3.878868	0.000000
O	1.939430	3.878868	1.939430
O	0.000000	5.818298	1.939430
O	1.939430	5.818298	0.000000
Ti	1.939430	5.818298	1.939430
Ag	0.000000	3.878868	3.878868
O	1.939430	3.878868	5.818298
O	0.000000	5.818298	5.818298
O	1.939430	5.818298	3.878868
Ti	1.939430	5.818298	5.818298
Ag	3.878868	0.000000	0.000000
O	5.818298	0.000000	1.939430
O	3.878868	1.939430	1.939430
O	5.818298	1.939430	0.000000
Ti	5.818298	1.939430	1.939430
Ag	3.878868	0.000000	3.878868
O	5.818298	0.000000	5.818298
O	3.878868	1.939430	5.818298
O	5.818298	1.939430	3.878868
Ti	5.818298	1.939430	5.818298
Ag	3.878868	3.878868	0.000000
O	5.818298	3.878868	1.939430
O	3.878868	5.818298	1.939430
O	5.818298	5.818298	0.000000
Ti	5.818298	5.818298	1.939430
Ag	3.878868	3.878868	3.878868
O	5.818298	3.878868	5.818298
O	3.878868	5.818298	5.818298
O	5.818298	5.818298	3.878868
Ti	5.818298	5.818298	5.818298
