40

Al	0.000000	0.000000	0.000000
O	1.918990	0.000000	1.918990
O	0.000000	1.918990	1.918990
O	1.918990	1.918990	0.000000
Ti	1.918990	1.918990	1.918990
Al	0.000000	0.000000	3.837967
O	1.918990	0.000000	5.756957
O	0.000000	1.918990	5.756957
O	1.918990	1.918990	3.837967
Ti	1.918990	1.918990	5.756957
Al	0.000000	3.837967	0.000000
O	1.918990	3.837967	1.918990
O	0.000000	5.756957	1.918990
O	1.918990	5.756957	0.000000
Ti	1.918990	5.756957	1.918990
Al	0.000000	3.837967	3.837967
O	1.918990	3.837967	5.756957
O	0.000000	5.756957	5.756957
O	1.918990	5.756957	3.837967
Ti	1.918990	5.756957	5.756957
Al	3.837967	0.000000	0.000000
O	5.756957	0.000000	1.918990
O	3.837967	1.918990	1.918990
O	5.756957	1.918990	0.000000
Ti	5.756957	1.918990	1.918990
Al	3.837967	0.000000	3.837967
O	5.756957	0.000000	5.756957
O	3.837967	1.918990	5.756957
O	5.756957	1.918990	3.837967
Ti	5.756957	1.918990	5.756957
Al	3.837967	3.837967	0.000000
O	5.756957	3.837967	1.918990
O	3.837967	5.756957	1.918990
O	5.756957	5.756957	0.000000
Ti	5.756957	5.756957	1.918990
Al	3.837967	3.837967	3.837967
O	5.756957	3.837967	5.756957
O	3.837967	5.756957	5.756957
O	5.756957	5.756957	3.837967
Ti	5.756957	5.756957	5.756957
