40

Bi	2.117256	2.117256	2.117256
O	0.000000	2.117256	2.117256
O	2.117256	0.000000	2.117256
O	2.117256	2.117256	0.000000
P	0.000000	0.000000	0.000000
Bi	2.117256	2.117256	6.351769
O	0.000000	2.117256	6.351769
O	2.117256	0.000000	6.351769
O	2.117256	2.117256	4.234513
P	0.000000	0.000000	4.234513
Bi	2.117256	6.351769	2.117256
O	0.000000	6.351769	2.117256
O	2.117256	4.234513	2.117256
O	2.117256	6.351769	0.000000
P	0.000000	4.234513	0.000000
Bi	2.117256	6.351769	6.351769
O	0.000000	6.351769	6.351769
O	2.117256	4.234513	6.351769
O	2.117256	6.351769	4.234513
P	0.000000	4.234513	4.234513
Bi	6.351769	2.117256	2.117256
O	4.234513	2.117256	2.117256
O	6.351769	0.000000	2.117256
O	6.351769	2.117256	0.000000
P	4.234513	0.000000	0.000000
Bi	6.351769	2.117256	6.351769
O	4.234513	2.117256	6.351769
O	6.351769	0.000000	6.351769
O	6.351769	2.117256	4.234513
P	4.234513	0.000000	4.234513
Bi	6.351769	6.351769	2.117256
O	4.234513	6.351769	2.117256
O	6.351769	4.234513	2.117256
O	6.351769	6.351769	0.000000
P	4.234513	4.234513	0.000000
Bi	6.351769	6.351769	6.351769
O	4.234513	6.351769	6.351769
O	6.351769	4.234513	6.351769
O	6.351769	6.351769	4.234513
P	4.234513	4.234513	4.234513
