40

Bi	2.117913	2.117913	2.117913
O	0.000000	2.117913	2.117913
O	2.117913	0.000000	2.117913
O	2.117913	2.117913	0.000000
P	0.000000	0.000000	0.000000
Bi	2.117913	2.117913	6.353740
O	0.000000	2.117913	6.353740
O	2.117913	0.000000	6.353740
O	2.117913	2.117913	4.235827
P	0.000000	0.000000	4.235827
Bi	2.117913	6.353740	2.117913
O	0.000000	6.353740	2.117913
O	2.117913	4.235827	2.117913
O	2.117913	6.353740	0.000000
P	0.000000	4.235827	0.000000
Bi	2.117913	6.353740	6.353740
O	0.000000	6.353740	6.353740
O	2.117913	4.235827	6.353740
O	2.117913	6.353740	4.235827
P	0.000000	4.235827	4.235827
Bi	6.353740	2.117913	2.117913
O	4.235827	2.117913	2.117913
O	6.353740	0.000000	2.117913
O	6.353740	2.117913	0.000000
P	4.235827	0.000000	0.000000
Bi	6.353740	2.117913	6.353740
O	4.235827	2.117913	6.353740
O	6.353740	0.000000	6.353740
O	6.353740	2.117913	4.235827
P	4.235827	0.000000	4.235827
Bi	6.353740	6.353740	2.117913
O	4.235827	6.353740	2.117913
O	6.353740	4.235827	2.117913
O	6.353740	6.353740	0.000000
P	4.235827	4.235827	0.000000
Bi	6.353740	6.353740	6.353740
O	4.235827	6.353740	6.353740
O	6.353740	4.235827	6.353740
O	6.353740	6.353740	4.235827
P	4.235827	4.235827	4.235827
