40

Dy	0.000000	0.000000	0.000000
O	2.016430	2.016430	0.000000
O	2.016430	0.000000	2.016430
O	0.000000	2.016430	2.016430
Ta	2.016430	2.016430	2.016430
Dy	0.000000	0.000000	4.032859
O	2.016430	2.016430	4.032859
O	2.016430	0.000000	6.049289
O	0.000000	2.016430	6.049289
Ta	2.016430	2.016430	6.049289
Dy	0.000000	4.032859	0.000000
O	2.016430	6.049289	0.000000
O	2.016430	4.032859	2.016430
O	0.000000	6.049289	2.016430
Ta	2.016430	6.049289	2.016430
Dy	0.000000	4.032859	4.032859
O	2.016430	6.049289	4.032859
O	2.016430	4.032859	6.049289
O	0.000000	6.049289	6.049289
Ta	2.016430	6.049289	6.049289
Dy	4.032859	0.000000	0.000000
O	6.049289	2.016430	0.000000
O	6.049289	0.000000	2.016430
O	4.032859	2.016430	2.016430
Ta	6.049289	2.016430	2.016430
Dy	4.032859	0.000000	4.032859
O	6.049289	2.016430	4.032859
O	6.049289	0.000000	6.049289
O	4.032859	2.016430	6.049289
Ta	6.049289	2.016430	6.049289
Dy	4.032859	4.032859	0.000000
O	6.049289	6.049289	0.000000
O	6.049289	4.032859	2.016430
O	4.032859	6.049289	2.016430
Ta	6.049289	6.049289	2.016430
Dy	4.032859	4.032859	4.032859
O	6.049289	6.049289	4.032859
O	6.049289	4.032859	6.049289
O	4.032859	6.049289	6.049289
Ta	6.049289	6.049289	6.049289
