40

As	1.908981	1.908981	1.908981
O	1.908981	1.908981	0.000000
O	0.000000	1.908981	1.908981
O	1.908981	0.000000	1.908981
V	0.000000	0.000000	0.000000
As	1.908981	1.908981	5.726935
O	1.908981	1.908981	3.817954
O	0.000000	1.908981	5.726935
O	1.908981	0.000000	5.726935
V	0.000000	0.000000	3.817954
As	1.908981	5.726935	1.908981
O	1.908981	5.726935	0.000000
O	0.000000	5.726935	1.908981
O	1.908981	3.817954	1.908981
V	0.000000	3.817954	0.000000
As	1.908981	5.726935	5.726935
O	1.908981	5.726935	3.817954
O	0.000000	5.726935	5.726935
O	1.908981	3.817954	5.726935
V	0.000000	3.817954	3.817954
As	5.726935	1.908981	1.908981
O	5.726935	1.908981	0.000000
O	3.817954	1.908981	1.908981
O	5.726935	0.000000	1.908981
V	3.817954	0.000000	0.000000
As	5.726935	1.908981	5.726935
O	5.726935	1.908981	3.817954
O	3.817954	1.908981	5.726935
O	5.726935	0.000000	5.726935
V	3.817954	0.000000	3.817954
As	5.726935	5.726935	1.908981
O	5.726935	5.726935	0.000000
O	3.817954	5.726935	1.908981
O	5.726935	3.817954	1.908981
V	3.817954	3.817954	0.000000
As	5.726935	5.726935	5.726935
O	5.726935	5.726935	3.817954
O	3.817954	5.726935	5.726935
O	5.726935	3.817954	5.726935
V	3.817954	3.817954	3.817954
