40

As	1.930929	1.930929	1.930929
O	0.000000	1.930929	1.930929
O	1.930929	0.000000	1.930929
O	1.930929	1.930929	0.000000
V	0.000000	0.000000	0.000000
As	1.930929	1.930929	5.792786
O	0.000000	1.930929	5.792786
O	1.930929	0.000000	5.792786
O	1.930929	1.930929	3.861857
V	0.000000	0.000000	3.861857
As	1.930929	5.792786	1.930929
O	0.000000	5.792786	1.930929
O	1.930929	3.861857	1.930929
O	1.930929	5.792786	0.000000
V	0.000000	3.861857	0.000000
As	1.930929	5.792786	5.792786
O	0.000000	5.792786	5.792786
O	1.930929	3.861857	5.792786
O	1.930929	5.792786	3.861857
V	0.000000	3.861857	3.861857
As	5.792786	1.930929	1.930929
O	3.861857	1.930929	1.930929
O	5.792786	0.000000	1.930929
O	5.792786	1.930929	0.000000
V	3.861857	0.000000	0.000000
As	5.792786	1.930929	5.792786
O	3.861857	1.930929	5.792786
O	5.792786	0.000000	5.792786
O	5.792786	1.930929	3.861857
V	3.861857	0.000000	3.861857
As	5.792786	5.792786	1.930929
O	3.861857	5.792786	1.930929
O	5.792786	3.861857	1.930929
O	5.792786	5.792786	0.000000
V	3.861857	3.861857	0.000000
As	5.792786	5.792786	5.792786
O	3.861857	5.792786	5.792786
O	5.792786	3.861857	5.792786
O	5.792786	5.792786	3.861857
V	3.861857	3.861857	3.861857
