40

Be	0.000000	0.000000	0.000000
Mn	1.844712	1.844712	1.844712
O	0.000000	1.844712	1.844712
O	1.844712	0.000000	1.844712
O	1.844712	1.844712	0.000000
Be	0.000000	0.000000	3.689423
Mn	1.844712	1.844712	5.534135
O	0.000000	1.844712	5.534135
O	1.844712	0.000000	5.534135
O	1.844712	1.844712	3.689423
Be	0.000000	3.689423	0.000000
Mn	1.844712	5.534135	1.844712
O	0.000000	5.534135	1.844712
O	1.844712	3.689423	1.844712
O	1.844712	5.534135	0.000000
Be	0.000000	3.689423	3.689423
Mn	1.844712	5.534135	5.534135
O	0.000000	5.534135	5.534135
O	1.844712	3.689423	5.534135
O	1.844712	5.534135	3.689423
Be	3.689423	0.000000	0.000000
Mn	5.534135	1.844712	1.844712
O	3.689423	1.844712	1.844712
O	5.534135	0.000000	1.844712
O	5.534135	1.844712	0.000000
Be	3.689423	0.000000	3.689423
Mn	5.534135	1.844712	5.534135
O	3.689423	1.844712	5.534135
O	5.534135	0.000000	5.534135
O	5.534135	1.844712	3.689423
Be	3.689423	3.689423	0.000000
Mn	5.534135	5.534135	1.844712
O	3.689423	5.534135	1.844712
O	5.534135	3.689423	1.844712
O	5.534135	5.534135	0.000000
Be	3.689423	3.689423	3.689423
Mn	5.534135	5.534135	5.534135
O	3.689423	5.534135	5.534135
O	5.534135	3.689423	5.534135
O	5.534135	5.534135	3.689423
