40

Be	0.000000	0.000000	0.000000
Mn	1.827530	1.827530	1.827530
O	1.827530	0.000000	1.827530
O	0.000000	1.827530	1.827530
O	1.827530	1.827530	0.000000
Be	0.000000	0.000000	3.655069
Mn	1.827530	1.827530	5.482599
O	1.827530	0.000000	5.482599
O	0.000000	1.827530	5.482599
O	1.827530	1.827530	3.655069
Be	0.000000	3.655069	0.000000
Mn	1.827530	5.482599	1.827530
O	1.827530	3.655069	1.827530
O	0.000000	5.482599	1.827530
O	1.827530	5.482599	0.000000
Be	0.000000	3.655069	3.655069
Mn	1.827530	5.482599	5.482599
O	1.827530	3.655069	5.482599
O	0.000000	5.482599	5.482599
O	1.827530	5.482599	3.655069
Be	3.655069	0.000000	0.000000
Mn	5.482599	1.827530	1.827530
O	5.482599	0.000000	1.827530
O	3.655069	1.827530	1.827530
O	5.482599	1.827530	0.000000
Be	3.655069	0.000000	3.655069
Mn	5.482599	1.827530	5.482599
O	5.482599	0.000000	5.482599
O	3.655069	1.827530	5.482599
O	5.482599	1.827530	3.655069
Be	3.655069	3.655069	0.000000
Mn	5.482599	5.482599	1.827530
O	5.482599	3.655069	1.827530
O	3.655069	5.482599	1.827530
O	5.482599	5.482599	0.000000
Be	3.655069	3.655069	3.655069
Mn	5.482599	5.482599	5.482599
O	5.482599	3.655069	5.482599
O	3.655069	5.482599	5.482599
O	5.482599	5.482599	3.655069
