40

Be	1.752607	1.752607	1.752607
Mn	0.000000	0.000000	0.000000
O	0.000000	1.752607	1.752607
O	1.752607	0.000000	1.752607
O	1.752607	1.752607	0.000000
Be	1.752607	1.752607	5.257821
Mn	0.000000	0.000000	3.505214
O	0.000000	1.752607	5.257821
O	1.752607	0.000000	5.257821
O	1.752607	1.752607	3.505214
Be	1.752607	5.257821	1.752607
Mn	0.000000	3.505214	0.000000
O	0.000000	5.257821	1.752607
O	1.752607	3.505214	1.752607
O	1.752607	5.257821	0.000000
Be	1.752607	5.257821	5.257821
Mn	0.000000	3.505214	3.505214
O	0.000000	5.257821	5.257821
O	1.752607	3.505214	5.257821
O	1.752607	5.257821	3.505214
Be	5.257821	1.752607	1.752607
Mn	3.505214	0.000000	0.000000
O	3.505214	1.752607	1.752607
O	5.257821	0.000000	1.752607
O	5.257821	1.752607	0.000000
Be	5.257821	1.752607	5.257821
Mn	3.505214	0.000000	3.505214
O	3.505214	1.752607	5.257821
O	5.257821	0.000000	5.257821
O	5.257821	1.752607	3.505214
Be	5.257821	5.257821	1.752607
Mn	3.505214	3.505214	0.000000
O	3.505214	5.257821	1.752607
O	5.257821	3.505214	1.752607
O	5.257821	5.257821	0.000000
Be	5.257821	5.257821	5.257821
Mn	3.505214	3.505214	3.505214
O	3.505214	5.257821	5.257821
O	5.257821	3.505214	5.257821
O	5.257821	5.257821	3.505214
