112

O	1.075415	1.073739	-1.073739
O	1.500398	-1.501419	-3.648898
O	-1.500398	1.501419	-3.648898
O	3.651219	-1.501419	-1.501419
O	4.076202	1.073739	-4.076578
O	4.076202	4.076578	-1.073739
O	1.075415	4.076578	-4.076578
O	6.652015	1.501419	-1.501419
Pt	0.000000	0.000000	0.000000
Pt	2.575813	-2.575159	-2.575159
Rb	-1.287897	-1.287584	-3.862743
Rb	1.287897	1.287584	-3.862743
Rb	6.439524	-1.287584	-1.287584
Rb	3.863710	1.287584	-1.287584
O	6.227032	6.224061	-1.073739
O	6.652016	3.648903	-3.648898
O	3.651219	6.651741	-3.648898
O	8.802836	3.648903	-1.501419
O	9.227819	6.224061	-4.076578
O	9.227819	9.226900	-1.073739
O	6.227032	9.226900	-4.076578
O	11.803633	6.651741	-1.501419
Pt	5.151617	5.150322	0.000000
Pt	7.727431	2.575163	-2.575159
Rb	3.863721	3.862738	-3.862743
Rb	6.439514	6.437906	-3.862743
Rb	11.591141	3.862737	-1.287584
Rb	9.015327	6.437906	-1.287584
O	-4.076202	1.073739	-6.224061
O	-3.651219	-1.501419	-8.799220
O	-6.652016	1.501419	-8.799220
O	-1.500399	-1.501419	-6.651741
O	-1.075416	1.073739	-9.226900
O	-1.075416	4.076578	-6.224061
O	-4.076202	4.076578	-9.226900
O	1.500398	1.501419	-6.651741
Pt	-5.151617	0.000000	-5.150322
Pt	-2.575804	-2.575159	-7.725481
Rb	-6.439514	-1.287584	-9.013065
Rb	-3.863721	1.287584	-9.013065
Rb	1.287906	-1.287584	-6.437906
Rb	-1.287907	1.287584	-6.437906
O	1.075415	6.224061	-6.224061
O	1.500398	3.648903	-8.799220
O	-1.500398	6.651741	-8.799220
O	3.651219	3.648903	-6.651741
O	4.076202	6.224061	-9.226900
O	4.076202	9.226900	-6.224061
O	1.075415	9.226900	-9.226900
O	6.652015	6.651741	-6.651741
Pt	0.000000	5.150322	-5.150322
Pt	2.575813	2.575163	-7.725481
Rb	-1.287897	3.862738	-9.013065
Rb	1.287897	6.437906	-9.013065
Rb	6.439524	3.862737	-6.437906
Rb	3.863710	6.437906	-6.437906
O	6.227032	-4.076582	-1.073739
O	6.652016	-6.651741	-3.648898
O	3.651219	-3.648903	-3.648898
O	8.802836	-6.651741	-1.501419
O	9.227819	-4.076582	-4.076578
O	9.227819	-1.073744	-1.073739
O	6.227032	-1.073744	-4.076578
O	11.803633	-3.648903	-1.501419
Pt	5.151617	-5.150322	0.000000
Pt	7.727431	-7.725481	-2.575159
Rb	3.863721	-6.437906	-3.862743
Rb	6.439514	-3.862738	-3.862743
Rb	11.591141	-6.437906	-1.287584
Rb	9.015327	-3.862738	-1.287584
O	11.378650	1.073739	-1.073739
O	11.803633	-1.501419	-3.648898
O	8.802836	1.501419	-3.648898
O	13.954453	-1.501419	-1.501419
O	14.379436	1.073739	-4.076578
O	14.379436	4.076578	-1.073739
O	11.378650	4.076578	-4.076578
O	16.955250	1.501419	-1.501419
Pt	10.303235	0.000000	0.000000
Pt	12.879048	-2.575159	-2.575159
Rb	9.015338	-1.287584	-3.862743
Rb	11.591131	1.287584	-3.862743
Rb	16.742758	-1.287584	-1.287584
Rb	14.166945	1.287584	-1.287584
O	1.075415	-4.076582	-6.224061
O	1.500398	-6.651741	-8.799220
O	-1.500398	-3.648903	-8.799220
O	3.651219	-6.651741	-6.651741
O	4.076202	-4.076582	-9.226900
O	4.076202	-1.073744	-6.224061
O	1.075415	-1.073744	-9.226900
O	6.652015	-3.648903	-6.651741
Pt	0.000000	-5.150322	-5.150322
Pt	2.575813	-7.725481	-7.725481
Rb	-1.287897	-6.437906	-9.013065
Rb	1.287897	-3.862738	-9.013065
Rb	6.439524	-6.437906	-6.437906
Rb	3.863710	-3.862738	-6.437906
O	6.227032	1.073739	-6.224061
O	6.652016	-1.501419	-8.799220
O	3.651219	1.501419	-8.799220
O	8.802836	-1.501419	-6.651741
O	9.227819	1.073739	-9.226900
O	9.227819	4.076578	-6.224061
O	6.227032	4.076578	-9.226900
O	11.803633	1.501419	-6.651741
Pt	5.151617	0.000000	-5.150322
Pt	7.727431	-2.575159	-7.725481
Rb	3.863721	-1.287584	-9.013065
Rb	6.439514	1.287584	-9.013065
Rb	11.591141	-1.287584	-6.437906
Rb	9.015327	1.287584	-6.437906
