112

Be	0.000000	0.000000	0.000000
Be	2.219507	-2.219532	-2.219532
Er	-1.109753	-1.109766	-3.329298
Er	3.329260	1.109766	-1.109766
Er	5.548767	-1.109766	-1.109766
Er	1.109753	1.109766	-3.329298
O	3.291735	-1.147078	-1.147078
O	-1.147279	1.147078	-3.291987
O	1.147279	-1.147078	-3.291987
O	1.072228	1.072454	-1.072454
O	5.586293	1.147078	-1.147078
O	1.072228	3.366610	-3.366610
O	3.366786	3.366610	-1.072454
O	3.366786	1.072454	-3.366610
Be	4.439014	4.439064	0.000000
Be	6.658521	2.219532	-2.219532
Er	3.329260	3.329298	-3.329298
Er	7.768274	5.548830	-1.109766
Er	9.987781	3.329298	-1.109766
Er	5.548767	5.548830	-3.329298
O	7.730748	3.291987	-1.147078
O	3.291735	5.586142	-3.291987
O	5.586293	3.291987	-3.291987
O	5.511241	5.511519	-1.072454
O	10.025307	5.586142	-1.147078
O	5.511241	7.805674	-3.366610
O	7.805800	7.805674	-1.072454
O	7.805800	5.511519	-3.366610
Be	-4.439014	0.000000	-4.439064
Be	-2.219507	-2.219532	-6.658597
Er	-5.548767	-1.109766	-7.768363
Er	-1.109753	1.109766	-5.548830
Er	1.109753	-1.109766	-5.548830
Er	-3.329260	1.109766	-7.768363
O	-1.147279	-1.147078	-5.586142
O	-5.586293	1.147078	-7.731051
O	-3.291735	-1.147078	-7.731051
O	-3.366786	1.072454	-5.511519
O	1.147279	1.147078	-5.586142
O	-3.366786	3.366610	-7.805674
O	-1.072228	3.366610	-5.511519
O	-1.072228	1.072454	-7.805674
Be	0.000000	4.439064	-4.439064
Be	2.219507	2.219532	-6.658597
Er	-1.109753	3.329298	-7.768363
Er	3.329260	5.548830	-5.548830
Er	5.548767	3.329298	-5.548830
Er	1.109753	5.548830	-7.768363
O	3.291735	3.291987	-5.586142
O	-1.147279	5.586142	-7.731051
O	1.147279	3.291987	-7.731051
O	1.072228	5.511519	-5.511519
O	5.586293	5.586142	-5.586142
O	1.072228	7.805674	-7.805674
O	3.366786	7.805674	-5.511519
O	3.366786	5.511519	-7.805674
Be	4.439014	-4.439064	0.000000
Be	6.658521	-6.658597	-2.219532
Er	3.329260	-5.548830	-3.329298
Er	7.768274	-3.329298	-1.109766
Er	9.987781	-5.548830	-1.109766
Er	5.548767	-3.329298	-3.329298
O	7.730748	-5.586142	-1.147078
O	3.291735	-3.291987	-3.291987
O	5.586293	-5.586142	-3.291987
O	5.511241	-3.366610	-1.072454
O	10.025307	-3.291987	-1.147078
O	5.511241	-1.072454	-3.366610
O	7.805800	-1.072454	-1.072454
O	7.805800	-3.366610	-3.366610
Be	8.878028	0.000000	0.000000
Be	11.097534	-2.219532	-2.219532
Er	7.768274	-1.109766	-3.329298
Er	12.207288	1.109766	-1.109766
Er	14.426795	-1.109766	-1.109766
Er	9.987781	1.109766	-3.329298
O	12.169762	-1.147078	-1.147078
O	7.730748	1.147078	-3.291987
O	10.025307	-1.147078	-3.291987
O	9.950255	1.072454	-1.072454
O	14.464320	1.147078	-1.147078
O	9.950255	3.366610	-3.366610
O	12.244814	3.366610	-1.072454
O	12.244814	1.072454	-3.366610
Be	0.000000	-4.439064	-4.439064
Be	2.219507	-6.658597	-6.658597
Er	-1.109753	-5.548830	-7.768363
Er	3.329260	-3.329298	-5.548830
Er	5.548767	-5.548830	-5.548830
Er	1.109753	-3.329298	-7.768363
O	3.291735	-5.586142	-5.586142
O	-1.147279	-3.291987	-7.731051
O	1.147279	-5.586142	-7.731051
O	1.072228	-3.366610	-5.511519
O	5.586293	-3.291987	-5.586142
O	1.072228	-1.072454	-7.805674
O	3.366786	-1.072454	-5.511519
O	3.366786	-3.366610	-7.805674
Be	4.439014	0.000000	-4.439064
Be	6.658521	-2.219532	-6.658597
Er	3.329260	-1.109766	-7.768363
Er	7.768274	1.109766	-5.548830
Er	9.987781	-1.109766	-5.548830
Er	5.548767	1.109766	-7.768363
O	7.730748	-1.147078	-5.586142
O	3.291735	1.147078	-7.731051
O	5.586293	-1.147078	-7.731051
O	5.511241	1.072454	-5.511519
O	10.025307	1.147078	-5.586142
O	5.511241	3.366610	-7.805674
O	7.805800	3.366610	-5.511519
O	7.805800	1.072454	-7.805674
