40

As	-0.000000	0.000000	11.052181
Sb	-0.000000	0.000000	16.797704
S	-0.000000	0.000000	0.165773
S	-0.000000	0.000000	21.579187
Se	-0.000000	-0.000000	5.884489
As	-1.110116	-1.922777	20.298737
Sb	-1.110116	-1.922777	26.044260
S	-1.110116	-1.922777	9.412328
S	-1.110116	-1.922777	30.825743
Se	-1.110116	-1.922777	15.131045
As	-2.220231	-3.845553	29.545293
Sb	-2.220231	-3.845553	35.290816
S	-2.220231	-3.845553	18.658884
S	-2.220231	-3.845553	40.072298
Se	-2.220231	-3.845553	24.377601
As	-1.110116	1.922777	20.298737
Sb	-1.110116	1.922777	26.044260
S	-1.110116	1.922777	9.412328
S	-1.110116	1.922777	30.825743
Se	-1.110116	1.922777	15.131045
As	-2.220231	0.000000	29.545293
Sb	-2.220231	0.000000	35.290816
S	-2.220231	0.000000	18.658884
S	-2.220231	0.000000	40.072298
Se	-2.220231	0.000000	24.377601
As	-3.330347	-1.922777	38.791848
Sb	-3.330347	-1.922777	44.537372
S	-3.330347	-1.922777	27.905440
S	-3.330347	-1.922777	49.318854
Se	-3.330347	-1.922777	33.624157
As	-2.220231	3.845553	29.545293
Sb	-2.220231	3.845553	35.290816
S	-2.220231	3.845553	18.658884
S	-2.220231	3.845553	40.072298
Se	-2.220231	3.845553	24.377601
As	-3.330347	1.922777	38.791848
Sb	-3.330347	1.922777	44.537372
S	-3.330347	1.922777	27.905440
S	-3.330347	1.922777	49.318854
Se	-3.330347	1.922777	33.624157
As	-4.440462	0.000000	48.038404
Sb	-4.440462	0.000000	53.783927
S	-4.440462	0.000000	37.151995
S	-4.440462	0.000000	58.565410
Se	-4.440462	0.000000	42.870712
As	2.220231	0.000000	20.298737
Sb	2.220231	0.000000	26.044260
S	2.220231	0.000000	9.412328
S	2.220231	0.000000	30.825743
Se	2.220231	-0.000000	15.131045
As	1.110116	-1.922777	29.545293
Sb	1.110116	-1.922777	35.290816
S	1.110116	-1.922777	18.658884
S	1.110116	-1.922777	40.072298
Se	1.110116	-1.922777	24.377601
As	-0.000000	-3.845553	38.791848
Sb	-0.000000	-3.845553	44.537372
S	-0.000000	-3.845553	27.905440
S	-0.000000	-3.845553	49.318854
Se	-0.000000	-3.845553	33.624157
As	1.110116	1.922777	29.545293
Sb	1.110116	1.922777	35.290816
S	1.110116	1.922777	18.658884
S	1.110116	1.922777	40.072298
Se	1.110116	1.922777	24.377601
As	-0.000000	0.000000	38.791848
Sb	-0.000000	0.000000	44.537372
S	-0.000000	0.000000	27.905440
S	-0.000000	0.000000	49.318854
Se	-0.000000	0.000000	33.624157
As	-1.110116	-1.922777	48.038404
Sb	-1.110116	-1.922777	53.783927
S	-1.110116	-1.922777	37.151995
S	-1.110116	-1.922777	58.565410
Se	-1.110116	-1.922777	42.870712
As	-0.000000	3.845553	38.791848
Sb	-0.000000	3.845553	44.537372
S	-0.000000	3.845553	27.905440
S	-0.000000	3.845553	49.318854
Se	-0.000000	3.845553	33.624157
As	-1.110116	1.922777	48.038404
Sb	-1.110116	1.922777	53.783927
S	-1.110116	1.922777	37.151995
S	-1.110116	1.922777	58.565410
Se	-1.110116	1.922777	42.870712
As	-2.220231	0.000000	57.284960
Sb	-2.220231	0.000000	63.030483
S	-2.220231	0.000000	46.398551
S	-2.220231	0.000000	67.811966
Se	-2.220231	0.000000	52.117268
As	4.440462	0.000000	29.545293
Sb	4.440462	0.000000	35.290816
S	4.440462	0.000000	18.658884
S	4.440462	0.000000	40.072298
Se	4.440462	-0.000000	24.377601
As	3.330347	-1.922777	38.791848
Sb	3.330347	-1.922777	44.537372
S	3.330347	-1.922777	27.905440
S	3.330347	-1.922777	49.318854
Se	3.330347	-1.922777	33.624157
As	2.220231	-3.845553	48.038404
Sb	2.220231	-3.845553	53.783927
S	2.220231	-3.845553	37.151995
S	2.220231	-3.845553	58.565410
Se	2.220231	-3.845553	42.870712
As	3.330347	1.922777	38.791848
Sb	3.330347	1.922777	44.537372
S	3.330347	1.922777	27.905440
S	3.330347	1.922777	49.318854
Se	3.330347	1.922777	33.624157
As	2.220231	0.000000	48.038404
Sb	2.220231	0.000000	53.783927
S	2.220231	0.000000	37.151995
S	2.220231	0.000000	58.565410
Se	2.220231	0.000000	42.870712
As	1.110116	-1.922777	57.284960
Sb	1.110116	-1.922777	63.030483
S	1.110116	-1.922777	46.398551
S	1.110116	-1.922777	67.811966
Se	1.110116	-1.922777	52.117268
As	2.220231	3.845553	48.038404
Sb	2.220231	3.845553	53.783927
S	2.220231	3.845553	37.151995
S	2.220231	3.845553	58.565410
Se	2.220231	3.845553	42.870712
As	1.110116	1.922777	57.284960
Sb	1.110116	1.922777	63.030483
S	1.110116	1.922777	46.398551
S	1.110116	1.922777	67.811966
Se	1.110116	1.922777	52.117268
As	-0.000000	0.000000	66.531515
Sb	-0.000000	0.000000	72.277039
S	-0.000000	0.000000	55.645107
S	-0.000000	0.000000	77.058521
Se	-0.000000	0.000000	61.363824
