40

Bi	0.000000	-0.000000	12.083978
Bi	0.000000	0.000000	18.591152
Se	0.000000	0.000000	0.000000
Te	0.000000	-0.000000	6.588146
Te	0.000000	0.000000	24.086984
Bi	-1.256948	-2.177097	22.309021
Bi	-1.256948	-2.177097	28.816195
Se	-1.256948	-2.177097	10.225043
Te	-1.256948	-2.177097	16.813189
Te	-1.256948	-2.177097	34.312027
Bi	-2.513896	-4.354195	32.534064
Bi	-2.513896	-4.354195	39.041238
Se	-2.513896	-4.354195	20.450086
Te	-2.513896	-4.354195	27.038232
Te	-2.513896	-4.354195	44.537070
Bi	-1.256948	2.177097	22.309021
Bi	-1.256948	2.177097	28.816195
Se	-1.256948	2.177097	10.225043
Te	-1.256948	2.177097	16.813189
Te	-1.256948	2.177097	34.312027
Bi	-2.513896	0.000000	32.534064
Bi	-2.513896	0.000000	39.041238
Se	-2.513896	0.000000	20.450086
Te	-2.513896	0.000000	27.038232
Te	-2.513896	0.000000	44.537070
Bi	-3.770843	-2.177097	42.759107
Bi	-3.770843	-2.177097	49.266281
Se	-3.770843	-2.177097	30.675129
Te	-3.770843	-2.177097	37.263275
Te	-3.770843	-2.177097	54.762113
Bi	-2.513896	4.354195	32.534064
Bi	-2.513896	4.354195	39.041238
Se	-2.513896	4.354195	20.450086
Te	-2.513896	4.354195	27.038232
Te	-2.513896	4.354195	44.537070
Bi	-3.770843	2.177097	42.759107
Bi	-3.770843	2.177097	49.266281
Se	-3.770843	2.177097	30.675129
Te	-3.770843	2.177097	37.263275
Te	-3.770843	2.177097	54.762113
Bi	-5.027791	0.000000	52.984150
Bi	-5.027791	0.000000	59.491324
Se	-5.027791	0.000000	40.900172
Te	-5.027791	0.000000	47.488318
Te	-5.027791	0.000000	64.987156
Bi	2.513896	-0.000000	22.309021
Bi	2.513896	0.000000	28.816195
Se	2.513896	0.000000	10.225043
Te	2.513896	-0.000000	16.813189
Te	2.513896	0.000000	34.312027
Bi	1.256948	-2.177097	32.534064
Bi	1.256948	-2.177097	39.041238
Se	1.256948	-2.177097	20.450086
Te	1.256948	-2.177097	27.038232
Te	1.256948	-2.177097	44.537070
Bi	0.000000	-4.354195	42.759107
Bi	0.000000	-4.354195	49.266281
Se	0.000000	-4.354195	30.675129
Te	0.000000	-4.354195	37.263275
Te	0.000000	-4.354195	54.762113
Bi	1.256948	2.177097	32.534064
Bi	1.256948	2.177097	39.041238
Se	1.256948	2.177097	20.450086
Te	1.256948	2.177097	27.038232
Te	1.256948	2.177097	44.537070
Bi	0.000000	0.000000	42.759107
Bi	0.000000	0.000000	49.266281
Se	0.000000	0.000000	30.675129
Te	0.000000	0.000000	37.263275
Te	0.000000	0.000000	54.762113
Bi	-1.256948	-2.177097	52.984150
Bi	-1.256948	-2.177097	59.491324
Se	-1.256948	-2.177097	40.900172
Te	-1.256948	-2.177097	47.488318
Te	-1.256948	-2.177097	64.987156
Bi	0.000000	4.354195	42.759107
Bi	0.000000	4.354195	49.266281
Se	0.000000	4.354195	30.675129
Te	0.000000	4.354195	37.263275
Te	0.000000	4.354195	54.762113
Bi	-1.256948	2.177097	52.984150
Bi	-1.256948	2.177097	59.491324
Se	-1.256948	2.177097	40.900172
Te	-1.256948	2.177097	47.488318
Te	-1.256948	2.177097	64.987156
Bi	-2.513896	0.000000	63.209193
Bi	-2.513896	0.000000	69.716367
Se	-2.513896	0.000000	51.125215
Te	-2.513896	0.000000	57.713361
Te	-2.513896	0.000000	75.212199
Bi	5.027791	-0.000000	32.534064
Bi	5.027791	0.000000	39.041238
Se	5.027791	0.000000	20.450086
Te	5.027791	-0.000000	27.038232
Te	5.027791	0.000000	44.537070
Bi	3.770843	-2.177097	42.759107
Bi	3.770843	-2.177097	49.266281
Se	3.770843	-2.177097	30.675129
Te	3.770843	-2.177097	37.263275
Te	3.770843	-2.177097	54.762113
Bi	2.513896	-4.354195	52.984150
Bi	2.513896	-4.354195	59.491324
Se	2.513896	-4.354195	40.900172
Te	2.513896	-4.354195	47.488318
Te	2.513896	-4.354195	64.987156
Bi	3.770843	2.177097	42.759107
Bi	3.770843	2.177097	49.266281
Se	3.770843	2.177097	30.675129
Te	3.770843	2.177097	37.263275
Te	3.770843	2.177097	54.762113
Bi	2.513896	0.000000	52.984150
Bi	2.513896	0.000000	59.491324
Se	2.513896	0.000000	40.900172
Te	2.513896	0.000000	47.488318
Te	2.513896	0.000000	64.987156
Bi	1.256948	-2.177097	63.209193
Bi	1.256948	-2.177097	69.716367
Se	1.256948	-2.177097	51.125215
Te	1.256948	-2.177097	57.713361
Te	1.256948	-2.177097	75.212199
Bi	2.513896	4.354195	52.984150
Bi	2.513896	4.354195	59.491324
Se	2.513896	4.354195	40.900172
Te	2.513896	4.354195	47.488318
Te	2.513896	4.354195	64.987156
Bi	1.256948	2.177097	63.209193
Bi	1.256948	2.177097	69.716367
Se	1.256948	2.177097	51.125215
Te	1.256948	2.177097	57.713361
Te	1.256948	2.177097	75.212199
Bi	0.000000	0.000000	73.434236
Bi	0.000000	0.000000	79.941410
Se	0.000000	0.000000	61.350258
Te	0.000000	0.000000	67.938404
Te	0.000000	0.000000	85.437242
