40

Bi	0.000000	0.000000	11.440952
Bi	-0.000000	0.000000	17.388316
S	0.000000	0.000000	0.000000
Se	-0.000000	-0.000000	6.181079
Se	0.000000	0.000000	22.648189
Bi	-1.195940	-2.071430	21.050708
Bi	-1.195940	-2.071430	26.998072
S	-1.195940	-2.071430	9.609756
Se	-1.195940	-2.071430	15.790835
Se	-1.195940	-2.071430	32.257945
Bi	-2.391881	-4.142859	30.660465
Bi	-2.391881	-4.142859	36.607828
S	-2.391881	-4.142859	19.219512
Se	-2.391881	-4.142859	25.400592
Se	-2.391881	-4.142859	41.867701
Bi	-1.195940	2.071430	21.050708
Bi	-1.195940	2.071430	26.998072
S	-1.195940	2.071430	9.609756
Se	-1.195940	2.071430	15.790835
Se	-1.195940	2.071430	32.257945
Bi	-2.391881	0.000000	30.660465
Bi	-2.391881	0.000000	36.607828
S	-2.391881	0.000000	19.219512
Se	-2.391881	0.000000	25.400592
Se	-2.391881	0.000000	41.867701
Bi	-3.587821	-2.071430	40.270221
Bi	-3.587821	-2.071430	46.217585
S	-3.587821	-2.071430	28.829268
Se	-3.587821	-2.071430	35.010348
Se	-3.587821	-2.071430	51.477458
Bi	-2.391881	4.142859	30.660465
Bi	-2.391881	4.142859	36.607828
S	-2.391881	4.142859	19.219512
Se	-2.391881	4.142859	25.400592
Se	-2.391881	4.142859	41.867701
Bi	-3.587821	2.071430	40.270221
Bi	-3.587821	2.071430	46.217585
S	-3.587821	2.071430	28.829268
Se	-3.587821	2.071430	35.010348
Se	-3.587821	2.071430	51.477458
Bi	-4.783762	0.000000	49.879977
Bi	-4.783762	0.000000	55.827341
S	-4.783762	0.000000	38.439025
Se	-4.783762	0.000000	44.620104
Se	-4.783762	0.000000	61.087214
Bi	2.391881	0.000000	21.050708
Bi	2.391881	0.000000	26.998072
S	2.391881	0.000000	9.609756
Se	2.391881	-0.000000	15.790835
Se	2.391881	0.000000	32.257945
Bi	1.195940	-2.071430	30.660465
Bi	1.195940	-2.071430	36.607828
S	1.195940	-2.071430	19.219512
Se	1.195940	-2.071430	25.400592
Se	1.195940	-2.071430	41.867701
Bi	0.000000	-4.142859	40.270221
Bi	0.000000	-4.142859	46.217585
S	0.000000	-4.142859	28.829268
Se	0.000000	-4.142859	35.010348
Se	0.000000	-4.142859	51.477458
Bi	1.195940	2.071430	30.660465
Bi	1.195940	2.071430	36.607828
S	1.195940	2.071430	19.219512
Se	1.195940	2.071430	25.400592
Se	1.195940	2.071430	41.867701
Bi	0.000000	0.000000	40.270221
Bi	0.000000	0.000000	46.217585
S	0.000000	0.000000	28.829268
Se	0.000000	0.000000	35.010348
Se	0.000000	0.000000	51.477458
Bi	-1.195940	-2.071430	49.879977
Bi	-1.195940	-2.071430	55.827341
S	-1.195940	-2.071430	38.439025
Se	-1.195940	-2.071430	44.620104
Se	-1.195940	-2.071430	61.087214
Bi	0.000000	4.142859	40.270221
Bi	0.000000	4.142859	46.217585
S	0.000000	4.142859	28.829268
Se	0.000000	4.142859	35.010348
Se	0.000000	4.142859	51.477458
Bi	-1.195940	2.071430	49.879977
Bi	-1.195940	2.071430	55.827341
S	-1.195940	2.071430	38.439025
Se	-1.195940	2.071430	44.620104
Se	-1.195940	2.071430	61.087214
Bi	-2.391881	0.000000	59.489733
Bi	-2.391881	0.000000	65.437097
S	-2.391881	0.000000	48.048781
Se	-2.391881	0.000000	54.229860
Se	-2.391881	0.000000	70.696970
Bi	4.783762	0.000000	30.660465
Bi	4.783762	0.000000	36.607828
S	4.783762	0.000000	19.219512
Se	4.783762	-0.000000	25.400592
Se	4.783762	0.000000	41.867701
Bi	3.587821	-2.071430	40.270221
Bi	3.587821	-2.071430	46.217585
S	3.587821	-2.071430	28.829268
Se	3.587821	-2.071430	35.010348
Se	3.587821	-2.071430	51.477458
Bi	2.391881	-4.142859	49.879977
Bi	2.391881	-4.142859	55.827341
S	2.391881	-4.142859	38.439025
Se	2.391881	-4.142859	44.620104
Se	2.391881	-4.142859	61.087214
Bi	3.587821	2.071430	40.270221
Bi	3.587821	2.071430	46.217585
S	3.587821	2.071430	28.829268
Se	3.587821	2.071430	35.010348
Se	3.587821	2.071430	51.477458
Bi	2.391881	0.000000	49.879977
Bi	2.391881	0.000000	55.827341
S	2.391881	0.000000	38.439025
Se	2.391881	0.000000	44.620104
Se	2.391881	0.000000	61.087214
Bi	1.195940	-2.071430	59.489733
Bi	1.195940	-2.071430	65.437097
S	1.195940	-2.071430	48.048781
Se	1.195940	-2.071430	54.229860
Se	1.195940	-2.071430	70.696970
Bi	2.391881	4.142859	49.879977
Bi	2.391881	4.142859	55.827341
S	2.391881	4.142859	38.439025
Se	2.391881	4.142859	44.620104
Se	2.391881	4.142859	61.087214
Bi	1.195940	2.071430	59.489733
Bi	1.195940	2.071430	65.437097
S	1.195940	2.071430	48.048781
Se	1.195940	2.071430	54.229860
Se	1.195940	2.071430	70.696970
Bi	0.000000	0.000000	69.099489
Bi	0.000000	0.000000	75.046853
S	0.000000	0.000000	57.658537
Se	0.000000	0.000000	63.839616
Se	0.000000	0.000000	80.306726
