40

Bi	-0.000000	0.000000	11.229361
Bi	-0.000000	0.000000	16.838140
S	0.000000	0.000000	0.000000
S	-0.000000	-0.000000	6.031616
S	-0.000000	-0.000000	22.035884
Bi	-1.171433	-2.028981	20.585194
Bi	-1.171433	-2.028981	26.193973
S	-1.171433	-2.028981	9.355833
S	-1.171433	-2.028981	15.387449
S	-1.171433	-2.028981	31.391718
Bi	-2.342865	-4.057961	29.941027
Bi	-2.342865	-4.057961	35.549807
S	-2.342865	-4.057961	18.711667
S	-2.342865	-4.057961	24.743283
S	-2.342865	-4.057961	40.747551
Bi	-1.171433	2.028981	20.585194
Bi	-1.171433	2.028981	26.193973
S	-1.171433	2.028981	9.355833
S	-1.171433	2.028981	15.387449
S	-1.171433	2.028981	31.391718
Bi	-2.342865	0.000000	29.941027
Bi	-2.342865	0.000000	35.549807
S	-2.342865	0.000000	18.711667
S	-2.342865	0.000000	24.743283
S	-2.342865	0.000000	40.747551
Bi	-3.514298	-2.028981	39.296861
Bi	-3.514298	-2.028981	44.905640
S	-3.514298	-2.028981	28.067500
S	-3.514298	-2.028981	34.099116
S	-3.514298	-2.028981	50.103385
Bi	-2.342865	4.057961	29.941027
Bi	-2.342865	4.057961	35.549807
S	-2.342865	4.057961	18.711667
S	-2.342865	4.057961	24.743283
S	-2.342865	4.057961	40.747551
Bi	-3.514298	2.028981	39.296861
Bi	-3.514298	2.028981	44.905640
S	-3.514298	2.028981	28.067500
S	-3.514298	2.028981	34.099116
S	-3.514298	2.028981	50.103385
Bi	-4.685730	0.000000	48.652694
Bi	-4.685730	0.000000	54.261473
S	-4.685730	0.000000	37.423334
S	-4.685730	0.000000	43.454950
S	-4.685730	0.000000	59.459218
Bi	2.342865	0.000000	20.585194
Bi	2.342865	0.000000	26.193973
S	2.342865	0.000000	9.355833
S	2.342865	-0.000000	15.387449
S	2.342865	-0.000000	31.391718
Bi	1.171433	-2.028981	29.941027
Bi	1.171433	-2.028981	35.549807
S	1.171433	-2.028981	18.711667
S	1.171433	-2.028981	24.743283
S	1.171433	-2.028981	40.747551
Bi	-0.000000	-4.057961	39.296861
Bi	-0.000000	-4.057961	44.905640
S	-0.000000	-4.057961	28.067500
S	-0.000000	-4.057961	34.099116
S	-0.000000	-4.057961	50.103385
Bi	1.171433	2.028981	29.941027
Bi	1.171433	2.028981	35.549807
S	1.171433	2.028981	18.711667
S	1.171433	2.028981	24.743283
S	1.171433	2.028981	40.747551
Bi	-0.000000	0.000000	39.296861
Bi	-0.000000	0.000000	44.905640
S	-0.000000	0.000000	28.067500
S	-0.000000	0.000000	34.099116
S	-0.000000	0.000000	50.103385
Bi	-1.171433	-2.028981	48.652694
Bi	-1.171433	-2.028981	54.261473
S	-1.171433	-2.028981	37.423334
S	-1.171433	-2.028981	43.454950
S	-1.171433	-2.028981	59.459218
Bi	-0.000000	4.057961	39.296861
Bi	-0.000000	4.057961	44.905640
S	-0.000000	4.057961	28.067500
S	-0.000000	4.057961	34.099116
S	-0.000000	4.057961	50.103385
Bi	-1.171433	2.028981	48.652694
Bi	-1.171433	2.028981	54.261473
S	-1.171433	2.028981	37.423334
S	-1.171433	2.028981	43.454950
S	-1.171433	2.028981	59.459218
Bi	-2.342865	0.000000	58.008528
Bi	-2.342865	0.000000	63.617307
S	-2.342865	0.000000	46.779167
S	-2.342865	0.000000	52.810783
S	-2.342865	0.000000	68.815051
Bi	4.685730	0.000000	29.941027
Bi	4.685730	0.000000	35.549807
S	4.685730	0.000000	18.711667
S	4.685730	-0.000000	24.743283
S	4.685730	-0.000000	40.747551
Bi	3.514298	-2.028981	39.296861
Bi	3.514298	-2.028981	44.905640
S	3.514298	-2.028981	28.067500
S	3.514298	-2.028981	34.099116
S	3.514298	-2.028981	50.103385
Bi	2.342865	-4.057961	48.652694
Bi	2.342865	-4.057961	54.261473
S	2.342865	-4.057961	37.423334
S	2.342865	-4.057961	43.454950
S	2.342865	-4.057961	59.459218
Bi	3.514298	2.028981	39.296861
Bi	3.514298	2.028981	44.905640
S	3.514298	2.028981	28.067500
S	3.514298	2.028981	34.099116
S	3.514298	2.028981	50.103385
Bi	2.342865	0.000000	48.652694
Bi	2.342865	0.000000	54.261473
S	2.342865	0.000000	37.423334
S	2.342865	0.000000	43.454950
S	2.342865	0.000000	59.459218
Bi	1.171433	-2.028981	58.008528
Bi	1.171433	-2.028981	63.617307
S	1.171433	-2.028981	46.779167
S	1.171433	-2.028981	52.810783
S	1.171433	-2.028981	68.815051
Bi	2.342865	4.057961	48.652694
Bi	2.342865	4.057961	54.261473
S	2.342865	4.057961	37.423334
S	2.342865	4.057961	43.454950
S	2.342865	4.057961	59.459218
Bi	1.171433	2.028981	58.008528
Bi	1.171433	2.028981	63.617307
S	1.171433	2.028981	46.779167
S	1.171433	2.028981	52.810783
S	1.171433	2.028981	68.815051
Bi	-0.000000	0.000000	67.364361
Bi	-0.000000	0.000000	72.973140
S	-0.000000	0.000000	56.135001
S	-0.000000	0.000000	62.166617
S	-0.000000	0.000000	78.170885
