40

Sb	1.037212	0.598834	6.627869
Bi	3.111635	1.796503	2.851376
Se	5.186059	2.994172	4.738747
S	1.037212	0.598834	1.430217
Te	3.111635	1.796503	8.397909
Sb	-1.037212	-0.598835	16.246317
Bi	1.037211	0.598834	12.469823
Se	3.111635	1.796503	14.357194
S	-1.037212	-0.598835	11.048665
Te	1.037211	0.598834	18.016357
Sb	-3.111636	-1.796504	25.864764
Bi	-1.037212	-0.598835	22.088271
Se	1.037211	0.598834	23.975642
S	-3.111636	-1.796504	20.667113
Te	-1.037212	-0.598835	27.634805
Sb	3.111635	4.191841	6.627869
Bi	5.186059	5.389510	2.851376
Se	7.260482	6.587179	4.738747
S	3.111635	4.191841	1.430217
Te	5.186059	5.389510	8.397909
Sb	1.037211	2.994172	16.246317
Bi	3.111635	4.191841	12.469823
Se	5.186059	5.389510	14.357194
S	1.037212	2.994172	11.048665
Te	3.111635	4.191841	18.016357
Sb	-1.037212	1.796503	25.864764
Bi	1.037211	2.994172	22.088271
Se	3.111635	4.191841	23.975642
S	-1.037212	1.796503	20.667113
Te	1.037211	2.994172	27.634805
Sb	5.186059	7.784848	6.627869
Bi	7.260482	8.982517	2.851376
Se	9.334906	10.180186	4.738747
S	5.186059	7.784848	1.430217
Te	7.260482	8.982517	8.397909
Sb	3.111635	6.587179	16.246317
Bi	5.186059	7.784848	12.469823
Se	7.260482	8.982517	14.357194
S	3.111635	6.587179	11.048665
Te	5.186058	7.784848	18.016357
Sb	1.037211	5.389510	25.864764
Bi	3.111635	6.587179	22.088271
Se	5.186058	7.784848	23.975642
S	1.037211	5.389510	20.667113
Te	3.111635	6.587179	27.634805
Sb	5.186059	0.598834	6.627869
Bi	7.260482	1.796503	2.851376
Se	9.334906	2.994172	4.738747
S	5.186059	0.598834	1.430217
Te	7.260482	1.796503	8.397909
Sb	3.111635	-0.598835	16.246317
Bi	5.186059	0.598834	12.469823
Se	7.260482	1.796503	14.357194
S	3.111635	-0.598835	11.048665
Te	5.186058	0.598834	18.016357
Sb	1.037211	-1.796504	25.864764
Bi	3.111635	-0.598835	22.088271
Se	5.186058	0.598834	23.975642
S	1.037211	-1.796504	20.667113
Te	3.111635	-0.598835	27.634805
Sb	7.260482	4.191841	6.627869
Bi	9.334906	5.389510	2.851376
Se	11.409329	6.587179	4.738747
S	7.260482	4.191841	1.430217
Te	9.334906	5.389510	8.397909
Sb	5.186058	2.994172	16.246317
Bi	7.260482	4.191841	12.469823
Se	9.334906	5.389510	14.357194
S	5.186059	2.994172	11.048665
Te	7.260482	4.191841	18.016357
Sb	3.111635	1.796503	25.864764
Bi	5.186058	2.994172	22.088271
Se	7.260482	4.191841	23.975642
S	3.111635	1.796503	20.667113
Te	5.186058	2.994172	27.634805
Sb	9.334906	7.784848	6.627869
Bi	11.409329	8.982517	2.851376
Se	13.483753	10.180186	4.738747
S	9.334906	7.784848	1.430217
Te	11.409329	8.982517	8.397909
Sb	7.260482	6.587179	16.246317
Bi	9.334906	7.784848	12.469823
Se	11.409329	8.982517	14.357194
S	7.260482	6.587179	11.048665
Te	9.334906	7.784848	18.016357
Sb	5.186058	5.389510	25.864764
Bi	7.260482	6.587179	22.088271
Se	9.334905	7.784848	23.975642
S	5.186058	5.389510	20.667113
Te	7.260482	6.587179	27.634805
Sb	9.334906	0.598834	6.627869
Bi	11.409329	1.796503	2.851376
Se	13.483753	2.994172	4.738747
S	9.334906	0.598834	1.430217
Te	11.409329	1.796503	8.397909
Sb	7.260482	-0.598835	16.246317
Bi	9.334906	0.598834	12.469823
Se	11.409329	1.796503	14.357194
S	7.260482	-0.598835	11.048665
Te	9.334906	0.598834	18.016357
Sb	5.186058	-1.796504	25.864764
Bi	7.260482	-0.598835	22.088271
Se	9.334905	0.598834	23.975642
S	5.186058	-1.796504	20.667113
Te	7.260482	-0.598835	27.634805
Sb	11.409329	4.191841	6.627869
Bi	13.483753	5.389510	2.851376
Se	15.558177	6.587179	4.738747
S	11.409330	4.191841	1.430217
Te	13.483753	5.389510	8.397909
Sb	9.334906	2.994172	16.246317
Bi	11.409329	4.191841	12.469823
Se	13.483753	5.389510	14.357194
S	9.334906	2.994172	11.048665
Te	11.409329	4.191841	18.016357
Sb	7.260482	1.796503	25.864764
Bi	9.334905	2.994172	22.088271
Se	11.409329	4.191841	23.975642
S	7.260482	1.796503	20.667113
Te	9.334905	2.994172	27.634805
Sb	13.483753	7.784848	6.627869
Bi	15.558177	8.982517	2.851376
Se	17.632600	10.180186	4.738747
S	13.483753	7.784848	1.430217
Te	15.558176	8.982517	8.397909
Sb	11.409329	6.587179	16.246317
Bi	13.483753	7.784848	12.469823
Se	15.558176	8.982517	14.357194
S	11.409329	6.587179	11.048665
Te	13.483753	7.784848	18.016357
Sb	9.334905	5.389510	25.864764
Bi	11.409329	6.587179	22.088271
Se	13.483753	7.784848	23.975642
S	9.334905	5.389510	20.667113
Te	11.409329	6.587179	27.634805
