40

Sb	0.000000	0.000000	11.754558
Bi	0.000000	-0.000000	17.036666
Te	-0.000000	0.000000	0.066314
S	0.000000	-0.000000	6.038506
S	-0.000000	-0.000000	22.658291
Sb	-1.195391	-2.070478	21.346947
Bi	-1.195391	-2.070478	26.629056
Te	-1.195391	-2.070478	9.658704
S	-1.195391	-2.070478	15.630895
S	-1.195391	-2.070478	32.250681
Sb	-2.390782	-4.140956	30.939336
Bi	-2.390782	-4.140956	36.221445
Te	-2.390782	-4.140956	19.251093
S	-2.390782	-4.140956	25.223285
S	-2.390782	-4.140956	41.843070
Sb	-1.195391	2.070478	21.346947
Bi	-1.195391	2.070478	26.629056
Te	-1.195391	2.070478	9.658704
S	-1.195391	2.070478	15.630895
S	-1.195391	2.070478	32.250681
Sb	-2.390782	0.000000	30.939336
Bi	-2.390782	0.000000	36.221445
Te	-2.390782	0.000000	19.251093
S	-2.390782	0.000000	25.223285
S	-2.390782	0.000000	41.843070
Sb	-3.586173	-2.070478	40.531726
Bi	-3.586173	-2.070478	45.813834
Te	-3.586173	-2.070478	28.843482
S	-3.586173	-2.070478	34.815674
S	-3.586173	-2.070478	51.435459
Sb	-2.390782	4.140956	30.939336
Bi	-2.390782	4.140956	36.221445
Te	-2.390782	4.140956	19.251093
S	-2.390782	4.140956	25.223285
S	-2.390782	4.140956	41.843070
Sb	-3.586173	2.070478	40.531726
Bi	-3.586173	2.070478	45.813834
Te	-3.586173	2.070478	28.843482
S	-3.586173	2.070478	34.815674
S	-3.586173	2.070478	51.435459
Sb	-4.781564	0.000000	50.124115
Bi	-4.781564	0.000000	55.406224
Te	-4.781564	0.000000	38.435872
S	-4.781564	0.000000	44.408063
S	-4.781564	0.000000	61.027849
Sb	2.390782	0.000000	21.346947
Bi	2.390782	-0.000000	26.629056
Te	2.390782	0.000000	9.658704
S	2.390782	-0.000000	15.630895
S	2.390782	-0.000000	32.250681
Sb	1.195391	-2.070478	30.939336
Bi	1.195391	-2.070478	36.221445
Te	1.195391	-2.070478	19.251093
S	1.195391	-2.070478	25.223285
S	1.195391	-2.070478	41.843070
Sb	0.000000	-4.140956	40.531726
Bi	0.000000	-4.140956	45.813834
Te	0.000000	-4.140956	28.843482
S	0.000000	-4.140956	34.815674
S	0.000000	-4.140956	51.435459
Sb	1.195391	2.070478	30.939336
Bi	1.195391	2.070478	36.221445
Te	1.195391	2.070478	19.251093
S	1.195391	2.070478	25.223285
S	1.195391	2.070478	41.843070
Sb	0.000000	0.000000	40.531726
Bi	0.000000	0.000000	45.813834
Te	0.000000	0.000000	28.843482
S	0.000000	0.000000	34.815674
S	0.000000	0.000000	51.435459
Sb	-1.195391	-2.070478	50.124115
Bi	-1.195391	-2.070478	55.406224
Te	-1.195391	-2.070478	38.435872
S	-1.195391	-2.070478	44.408063
S	-1.195391	-2.070478	61.027849
Sb	0.000000	4.140956	40.531726
Bi	0.000000	4.140956	45.813834
Te	0.000000	4.140956	28.843482
S	0.000000	4.140956	34.815674
S	0.000000	4.140956	51.435459
Sb	-1.195391	2.070478	50.124115
Bi	-1.195391	2.070478	55.406224
Te	-1.195391	2.070478	38.435872
S	-1.195391	2.070478	44.408063
S	-1.195391	2.070478	61.027849
Sb	-2.390782	0.000000	59.716504
Bi	-2.390782	0.000000	64.998613
Te	-2.390782	0.000000	48.028261
S	-2.390782	0.000000	54.000452
S	-2.390782	0.000000	70.620238
Sb	4.781564	0.000000	30.939336
Bi	4.781564	-0.000000	36.221445
Te	4.781564	0.000000	19.251093
S	4.781564	-0.000000	25.223285
S	4.781564	-0.000000	41.843070
Sb	3.586173	-2.070478	40.531726
Bi	3.586173	-2.070478	45.813834
Te	3.586173	-2.070478	28.843482
S	3.586173	-2.070478	34.815674
S	3.586173	-2.070478	51.435459
Sb	2.390782	-4.140956	50.124115
Bi	2.390782	-4.140956	55.406224
Te	2.390782	-4.140956	38.435872
S	2.390782	-4.140956	44.408063
S	2.390782	-4.140956	61.027849
Sb	3.586173	2.070478	40.531726
Bi	3.586173	2.070478	45.813834
Te	3.586173	2.070478	28.843482
S	3.586173	2.070478	34.815674
S	3.586173	2.070478	51.435459
Sb	2.390782	0.000000	50.124115
Bi	2.390782	0.000000	55.406224
Te	2.390782	0.000000	38.435872
S	2.390782	0.000000	44.408063
S	2.390782	0.000000	61.027849
Sb	1.195391	-2.070478	59.716504
Bi	1.195391	-2.070478	64.998613
Te	1.195391	-2.070478	48.028261
S	1.195391	-2.070478	54.000452
S	1.195391	-2.070478	70.620238
Sb	2.390782	4.140956	50.124115
Bi	2.390782	4.140956	55.406224
Te	2.390782	4.140956	38.435872
S	2.390782	4.140956	44.408063
S	2.390782	4.140956	61.027849
Sb	1.195391	2.070478	59.716504
Bi	1.195391	2.070478	64.998613
Te	1.195391	2.070478	48.028261
S	1.195391	2.070478	54.000452
S	1.195391	2.070478	70.620238
Sb	0.000000	0.000000	69.308893
Bi	0.000000	0.000000	74.591002
Te	0.000000	0.000000	57.620650
S	0.000000	0.000000	63.592842
S	0.000000	0.000000	80.212627
