40

Sb	0.000000	0.000000	11.887703
Sb	-0.000000	0.000000	18.360688
Se	0.000000	0.000000	0.000000
Te	0.000000	-0.000000	6.525751
Te	0.000000	-0.000000	23.722640
Sb	-1.227713	-2.126461	21.970499
Sb	-1.227713	-2.126461	28.443485
Se	-1.227713	-2.126461	10.082797
Te	-1.227713	-2.126461	16.608548
Te	-1.227713	-2.126461	33.805437
Sb	-2.455425	-4.252921	32.053296
Sb	-2.455425	-4.252921	38.526282
Se	-2.455425	-4.252921	20.165594
Te	-2.455425	-4.252921	26.691345
Te	-2.455425	-4.252921	43.888234
Sb	-1.227713	2.126461	21.970499
Sb	-1.227713	2.126461	28.443485
Se	-1.227713	2.126461	10.082797
Te	-1.227713	2.126461	16.608548
Te	-1.227713	2.126461	33.805437
Sb	-2.455425	0.000000	32.053296
Sb	-2.455425	0.000000	38.526282
Se	-2.455425	0.000000	20.165594
Te	-2.455425	0.000000	26.691345
Te	-2.455425	0.000000	43.888234
Sb	-3.683138	-2.126461	42.136093
Sb	-3.683138	-2.126461	48.609079
Se	-3.683138	-2.126461	30.248391
Te	-3.683138	-2.126461	36.774142
Te	-3.683138	-2.126461	53.971030
Sb	-2.455425	4.252921	32.053296
Sb	-2.455425	4.252921	38.526282
Se	-2.455425	4.252921	20.165594
Te	-2.455425	4.252921	26.691345
Te	-2.455425	4.252921	43.888234
Sb	-3.683138	2.126461	42.136093
Sb	-3.683138	2.126461	48.609079
Se	-3.683138	2.126461	30.248391
Te	-3.683138	2.126461	36.774142
Te	-3.683138	2.126461	53.971030
Sb	-4.910851	0.000000	52.218890
Sb	-4.910851	0.000000	58.691876
Se	-4.910851	0.000000	40.331188
Te	-4.910851	0.000000	46.856938
Te	-4.910851	0.000000	64.053827
Sb	2.455425	0.000000	21.970499
Sb	2.455425	0.000000	28.443485
Se	2.455425	0.000000	10.082797
Te	2.455425	-0.000000	16.608548
Te	2.455425	-0.000000	33.805437
Sb	1.227713	-2.126461	32.053296
Sb	1.227713	-2.126461	38.526282
Se	1.227713	-2.126461	20.165594
Te	1.227713	-2.126461	26.691345
Te	1.227713	-2.126461	43.888234
Sb	0.000000	-4.252921	42.136093
Sb	0.000000	-4.252921	48.609079
Se	0.000000	-4.252921	30.248391
Te	0.000000	-4.252921	36.774142
Te	0.000000	-4.252921	53.971030
Sb	1.227713	2.126461	32.053296
Sb	1.227713	2.126461	38.526282
Se	1.227713	2.126461	20.165594
Te	1.227713	2.126461	26.691345
Te	1.227713	2.126461	43.888234
Sb	0.000000	0.000000	42.136093
Sb	0.000000	0.000000	48.609079
Se	0.000000	0.000000	30.248391
Te	0.000000	0.000000	36.774142
Te	0.000000	0.000000	53.971030
Sb	-1.227713	-2.126461	52.218890
Sb	-1.227713	-2.126461	58.691876
Se	-1.227713	-2.126461	40.331188
Te	-1.227713	-2.126461	46.856938
Te	-1.227713	-2.126461	64.053827
Sb	0.000000	4.252921	42.136093
Sb	0.000000	4.252921	48.609079
Se	0.000000	4.252921	30.248391
Te	0.000000	4.252921	36.774142
Te	0.000000	4.252921	53.971030
Sb	-1.227713	2.126461	52.218890
Sb	-1.227713	2.126461	58.691876
Se	-1.227713	2.126461	40.331188
Te	-1.227713	2.126461	46.856938
Te	-1.227713	2.126461	64.053827
Sb	-2.455425	0.000000	62.301687
Sb	-2.455425	0.000000	68.774673
Se	-2.455425	0.000000	50.413984
Te	-2.455425	0.000000	56.939735
Te	-2.455425	0.000000	74.136624
Sb	4.910851	0.000000	32.053296
Sb	4.910851	0.000000	38.526282
Se	4.910851	0.000000	20.165594
Te	4.910851	-0.000000	26.691345
Te	4.910851	-0.000000	43.888234
Sb	3.683138	-2.126461	42.136093
Sb	3.683138	-2.126461	48.609079
Se	3.683138	-2.126461	30.248391
Te	3.683138	-2.126461	36.774142
Te	3.683138	-2.126461	53.971030
Sb	2.455425	-4.252921	52.218890
Sb	2.455425	-4.252921	58.691876
Se	2.455425	-4.252921	40.331188
Te	2.455425	-4.252921	46.856938
Te	2.455425	-4.252921	64.053827
Sb	3.683138	2.126461	42.136093
Sb	3.683138	2.126461	48.609079
Se	3.683138	2.126461	30.248391
Te	3.683138	2.126461	36.774142
Te	3.683138	2.126461	53.971030
Sb	2.455425	0.000000	52.218890
Sb	2.455425	0.000000	58.691876
Se	2.455425	0.000000	40.331188
Te	2.455425	0.000000	46.856938
Te	2.455425	0.000000	64.053827
Sb	1.227713	-2.126461	62.301687
Sb	1.227713	-2.126461	68.774673
Se	1.227713	-2.126461	50.413984
Te	1.227713	-2.126461	56.939735
Te	1.227713	-2.126461	74.136624
Sb	2.455425	4.252921	52.218890
Sb	2.455425	4.252921	58.691876
Se	2.455425	4.252921	40.331188
Te	2.455425	4.252921	46.856938
Te	2.455425	4.252921	64.053827
Sb	1.227713	2.126461	62.301687
Sb	1.227713	2.126461	68.774673
Se	1.227713	2.126461	50.413984
Te	1.227713	2.126461	56.939735
Te	1.227713	2.126461	74.136624
Sb	0.000000	0.000000	72.384484
Sb	0.000000	0.000000	78.857469
Se	0.000000	0.000000	60.496781
Te	0.000000	0.000000	67.022532
Te	0.000000	0.000000	84.219421
