40

Cr	1.927170	1.927170	1.927170
O	0.000000	1.927170	1.927170
O	1.927170	0.000000	1.927170
O	1.927170	1.927170	0.000000
Y	0.000000	0.000000	0.000000
Cr	1.927170	1.927170	5.781510
O	0.000000	1.927170	5.781510
O	1.927170	0.000000	5.781510
O	1.927170	1.927170	3.854340
Y	0.000000	0.000000	3.854340
Cr	1.927170	5.781510	1.927170
O	0.000000	5.781510	1.927170
O	1.927170	3.854340	1.927170
O	1.927170	5.781510	0.000000
Y	0.000000	3.854340	0.000000
Cr	1.927170	5.781510	5.781510
O	0.000000	5.781510	5.781510
O	1.927170	3.854340	5.781510
O	1.927170	5.781510	3.854340
Y	0.000000	3.854340	3.854340
Cr	5.781510	1.927170	1.927170
O	3.854340	1.927170	1.927170
O	5.781510	0.000000	1.927170
O	5.781510	1.927170	0.000000
Y	3.854340	0.000000	0.000000
Cr	5.781510	1.927170	5.781510
O	3.854340	1.927170	5.781510
O	5.781510	0.000000	5.781510
O	5.781510	1.927170	3.854340
Y	3.854340	0.000000	3.854340
Cr	5.781510	5.781510	1.927170
O	3.854340	5.781510	1.927170
O	5.781510	3.854340	1.927170
O	5.781510	5.781510	0.000000
Y	3.854340	3.854340	0.000000
Cr	5.781510	5.781510	5.781510
O	3.854340	5.781510	5.781510
O	5.781510	3.854340	5.781510
O	5.781510	5.781510	3.854340
Y	3.854340	3.854340	3.854340
