40

Cr	1.944026	1.944026	1.944026
O	1.944026	1.944026	0.000000
O	0.000000	1.944026	1.944026
O	1.944026	0.000000	1.944026
U	0.000000	0.000000	0.000000
Cr	1.944026	1.944026	5.832071
O	1.944026	1.944026	3.888045
O	0.000000	1.944026	5.832071
O	1.944026	0.000000	5.832071
U	0.000000	0.000000	3.888045
Cr	1.944026	5.832071	1.944026
O	1.944026	5.832071	0.000000
O	0.000000	5.832071	1.944026
O	1.944026	3.888045	1.944026
U	0.000000	3.888045	0.000000
Cr	1.944026	5.832071	5.832071
O	1.944026	5.832071	3.888045
O	0.000000	5.832071	5.832071
O	1.944026	3.888045	5.832071
U	0.000000	3.888045	3.888045
Cr	5.832071	1.944026	1.944026
O	5.832071	1.944026	0.000000
O	3.888045	1.944026	1.944026
O	5.832071	0.000000	1.944026
U	3.888045	0.000000	0.000000
Cr	5.832071	1.944026	5.832071
O	5.832071	1.944026	3.888045
O	3.888045	1.944026	5.832071
O	5.832071	0.000000	5.832071
U	3.888045	0.000000	3.888045
Cr	5.832071	5.832071	1.944026
O	5.832071	5.832071	0.000000
O	3.888045	5.832071	1.944026
O	5.832071	3.888045	1.944026
U	3.888045	3.888045	0.000000
Cr	5.832071	5.832071	5.832071
O	5.832071	5.832071	3.888045
O	3.888045	5.832071	5.832071
O	5.832071	3.888045	5.832071
U	3.888045	3.888045	3.888045
