112

O	3.671326	-1.091698	-1.091698
O	-1.091905	1.091698	-3.672911
O	1.091905	-1.091698	-3.672911
O	1.289711	1.290607	-1.290607
O	5.855137	1.091698	-1.091698
O	1.289711	3.474003	-3.474003
O	3.473521	3.474003	-1.290607
O	3.473521	1.290607	-3.474003
Re	0.000000	0.000000	0.000000
Re	2.381616	-2.382305	-2.382305
Y	-1.190808	-1.191152	-3.573457
Y	3.572424	1.191152	-1.191152
Y	5.954039	-1.191152	-1.191152
Y	1.190808	1.191152	-3.573457
O	8.434558	3.672911	-1.091698
O	3.671326	5.856308	-3.672911
O	5.855137	3.672911	-3.672911
O	6.052942	6.055216	-1.290607
O	10.618368	5.856308	-1.091698
O	6.052942	8.238613	-3.474003
O	8.236752	8.238613	-1.290607
O	8.236752	6.055216	-3.474003
Re	4.763231	4.764610	0.000000
Re	7.144847	2.382305	-2.382305
Y	3.572424	3.573457	-3.573457
Y	8.335655	5.955762	-1.191152
Y	10.717271	3.573457	-1.191152
Y	5.954039	5.955762	-3.573457
O	-1.091905	-1.091698	-5.856308
O	-5.855137	1.091698	-8.437521
O	-3.671326	-1.091698	-8.437521
O	-3.473521	1.290607	-6.055216
O	1.091905	1.091698	-5.856308
O	-3.473521	3.474003	-8.238613
O	-1.289711	3.474003	-6.055216
O	-1.289711	1.290607	-8.238613
Re	-4.763231	0.000000	-4.764610
Re	-2.381616	-2.382305	-7.146914
Y	-5.954039	-1.191152	-8.338067
Y	-1.190808	1.191152	-5.955762
Y	1.190808	-1.191152	-5.955762
Y	-3.572424	1.191152	-8.338067
O	3.671326	3.672911	-5.856308
O	-1.091905	5.856308	-8.437521
O	1.091905	3.672911	-8.437521
O	1.289711	6.055216	-6.055216
O	5.855137	5.856308	-5.856308
O	1.289711	8.238613	-8.238613
O	3.473521	8.238613	-6.055216
O	3.473521	6.055216	-8.238613
Re	0.000000	4.764610	-4.764610
Re	2.381616	2.382305	-7.146914
Y	-1.190808	3.573457	-8.338067
Y	3.572424	5.955762	-5.955762
Y	5.954039	3.573457	-5.955762
Y	1.190808	5.955762	-8.338067
O	8.434558	-5.856308	-1.091698
O	3.671326	-3.672911	-3.672911
O	5.855137	-5.856308	-3.672911
O	6.052942	-3.474003	-1.290607
O	10.618368	-3.672911	-1.091698
O	6.052942	-1.290607	-3.474003
O	8.236752	-1.290607	-1.290607
O	8.236752	-3.474003	-3.474003
Re	4.763231	-4.764610	0.000000
Re	7.144847	-7.146914	-2.382305
Y	3.572424	-5.955762	-3.573457
Y	8.335655	-3.573457	-1.191152
Y	10.717271	-5.955762	-1.191152
Y	5.954039	-3.573457	-3.573457
O	13.197789	-1.091698	-1.091698
O	8.434558	1.091698	-3.672911
O	10.618368	-1.091698	-3.672911
O	10.816173	1.290607	-1.290607
O	15.381600	1.091698	-1.091698
O	10.816173	3.474003	-3.474003
O	12.999984	3.474003	-1.290607
O	12.999984	1.290607	-3.474003
Re	9.526463	0.000000	0.000000
Re	11.908079	-2.382305	-2.382305
Y	8.335655	-1.191152	-3.573457
Y	13.098887	1.191152	-1.191152
Y	15.480502	-1.191152	-1.191152
Y	10.717271	1.191152	-3.573457
O	3.671326	-5.856308	-5.856308
O	-1.091905	-3.672911	-8.437521
O	1.091905	-5.856308	-8.437521
O	1.289711	-3.474003	-6.055216
O	5.855137	-3.672911	-5.856308
O	1.289711	-1.290607	-8.238613
O	3.473521	-1.290607	-6.055216
O	3.473521	-3.474003	-8.238613
Re	0.000000	-4.764610	-4.764610
Re	2.381616	-7.146914	-7.146914
Y	-1.190808	-5.955762	-8.338067
Y	3.572424	-3.573457	-5.955762
Y	5.954039	-5.955762	-5.955762
Y	1.190808	-3.573457	-8.338067
O	8.434558	-1.091698	-5.856308
O	3.671326	1.091698	-8.437521
O	5.855137	-1.091698	-8.437521
O	6.052942	1.290607	-6.055216
O	10.618368	1.091698	-5.856308
O	6.052942	3.474003	-8.238613
O	8.236752	3.474003	-6.055216
O	8.236752	1.290607	-8.238613
Re	4.763231	0.000000	-4.764610
Re	7.144847	-2.382305	-7.146914
Y	3.572424	-1.191152	-8.338067
Y	8.335655	1.191152	-5.955762
Y	10.717271	-1.191152	-5.955762
Y	5.954039	1.191152	-8.338067
