40

Li	1.840123	1.840123	1.840123
O	0.000000	1.840123	1.840123
O	1.840123	0.000000	1.840123
O	1.840123	1.840123	0.000000
Rh	0.000000	0.000000	0.000000
Li	1.840123	1.840123	5.520368
O	0.000000	1.840123	5.520368
O	1.840123	0.000000	5.520368
O	1.840123	1.840123	3.680245
Rh	0.000000	0.000000	3.680245
Li	1.840123	5.520368	1.840123
O	0.000000	5.520368	1.840123
O	1.840123	3.680245	1.840123
O	1.840123	5.520368	0.000000
Rh	0.000000	3.680245	0.000000
Li	1.840123	5.520368	5.520368
O	0.000000	5.520368	5.520368
O	1.840123	3.680245	5.520368
O	1.840123	5.520368	3.680245
Rh	0.000000	3.680245	3.680245
Li	5.520368	1.840123	1.840123
O	3.680245	1.840123	1.840123
O	5.520368	0.000000	1.840123
O	5.520368	1.840123	0.000000
Rh	3.680245	0.000000	0.000000
Li	5.520368	1.840123	5.520368
O	3.680245	1.840123	5.520368
O	5.520368	0.000000	5.520368
O	5.520368	1.840123	3.680245
Rh	3.680245	0.000000	3.680245
Li	5.520368	5.520368	1.840123
O	3.680245	5.520368	1.840123
O	5.520368	3.680245	1.840123
O	5.520368	5.520368	0.000000
Rh	3.680245	3.680245	0.000000
Li	5.520368	5.520368	5.520368
O	3.680245	5.520368	5.520368
O	5.520368	3.680245	5.520368
O	5.520368	5.520368	3.680245
Rh	3.680245	3.680245	3.680245
