40

F	0.000000	0.000000	0.000000
In	2.129385	2.129385	2.129385
O	0.000000	2.129385	2.129385
O	2.129385	0.000000	2.129385
O	2.129385	2.129385	0.000000
F	0.000000	0.000000	4.258771
In	2.129385	2.129385	6.388156
O	0.000000	2.129385	6.388156
O	2.129385	0.000000	6.388156
O	2.129385	2.129385	4.258771
F	0.000000	4.258771	0.000000
In	2.129385	6.388156	2.129385
O	0.000000	6.388156	2.129385
O	2.129385	4.258771	2.129385
O	2.129385	6.388156	0.000000
F	0.000000	4.258771	4.258771
In	2.129385	6.388156	6.388156
O	0.000000	6.388156	6.388156
O	2.129385	4.258771	6.388156
O	2.129385	6.388156	4.258771
F	4.258771	0.000000	0.000000
In	6.388156	2.129385	2.129385
O	4.258771	2.129385	2.129385
O	6.388156	0.000000	2.129385
O	6.388156	2.129385	0.000000
F	4.258771	0.000000	4.258771
In	6.388156	2.129385	6.388156
O	4.258771	2.129385	6.388156
O	6.388156	0.000000	6.388156
O	6.388156	2.129385	4.258771
F	4.258771	4.258771	0.000000
In	6.388156	6.388156	2.129385
O	4.258771	6.388156	2.129385
O	6.388156	4.258771	2.129385
O	6.388156	6.388156	0.000000
F	4.258771	4.258771	4.258771
In	6.388156	6.388156	6.388156
O	4.258771	6.388156	6.388156
O	6.388156	4.258771	6.388156
O	6.388156	6.388156	4.258771
