40

Co	0.000000	0.000000	0.000000
Li	1.758611	1.758611	1.758611
O	1.758611	1.758611	0.000000
O	1.758611	0.000000	1.758611
O	0.000000	1.758611	1.758611
Co	0.000000	0.000000	3.517227
Li	1.758611	1.758611	5.275839
O	1.758611	1.758611	3.517227
O	1.758611	0.000000	5.275839
O	0.000000	1.758611	5.275839
Co	0.000000	3.517227	0.000000
Li	1.758611	5.275839	1.758611
O	1.758611	5.275839	0.000000
O	1.758611	3.517227	1.758611
O	0.000000	5.275839	1.758611
Co	0.000000	3.517227	3.517227
Li	1.758611	5.275839	5.275839
O	1.758611	5.275839	3.517227
O	1.758611	3.517227	5.275839
O	0.000000	5.275839	5.275839
Co	3.517227	0.000000	0.000000
Li	5.275839	1.758611	1.758611
O	5.275839	1.758611	0.000000
O	5.275839	0.000000	1.758611
O	3.517227	1.758611	1.758611
Co	3.517227	0.000000	3.517227
Li	5.275839	1.758611	5.275839
O	5.275839	1.758611	3.517227
O	5.275839	0.000000	5.275839
O	3.517227	1.758611	5.275839
Co	3.517227	3.517227	0.000000
Li	5.275839	5.275839	1.758611
O	5.275839	5.275839	0.000000
O	5.275839	3.517227	1.758611
O	3.517227	5.275839	1.758611
Co	3.517227	3.517227	3.517227
Li	5.275839	5.275839	5.275839
O	5.275839	5.275839	3.517227
O	5.275839	3.517227	5.275839
O	3.517227	5.275839	5.275839
