40

Co	1.861389	1.861389	1.861389
Li	0.000000	0.000000	0.000000
O	0.000000	1.861389	1.861389
O	1.861389	0.000000	1.861389
O	1.861389	1.861389	0.000000
Co	1.861389	1.861389	5.584166
Li	0.000000	0.000000	3.722777
O	0.000000	1.861389	5.584166
O	1.861389	0.000000	5.584166
O	1.861389	1.861389	3.722777
Co	1.861389	5.584166	1.861389
Li	0.000000	3.722777	0.000000
O	0.000000	5.584166	1.861389
O	1.861389	3.722777	1.861389
O	1.861389	5.584166	0.000000
Co	1.861389	5.584166	5.584166
Li	0.000000	3.722777	3.722777
O	0.000000	5.584166	5.584166
O	1.861389	3.722777	5.584166
O	1.861389	5.584166	3.722777
Co	5.584166	1.861389	1.861389
Li	3.722777	0.000000	0.000000
O	3.722777	1.861389	1.861389
O	5.584166	0.000000	1.861389
O	5.584166	1.861389	0.000000
Co	5.584166	1.861389	5.584166
Li	3.722777	0.000000	3.722777
O	3.722777	1.861389	5.584166
O	5.584166	0.000000	5.584166
O	5.584166	1.861389	3.722777
Co	5.584166	5.584166	1.861389
Li	3.722777	3.722777	0.000000
O	3.722777	5.584166	1.861389
O	5.584166	3.722777	1.861389
O	5.584166	5.584166	0.000000
Co	5.584166	5.584166	5.584166
Li	3.722777	3.722777	3.722777
O	3.722777	5.584166	5.584166
O	5.584166	3.722777	5.584166
O	5.584166	5.584166	3.722777
