40

O	0.000000	2.030666	2.030666
O	2.030666	0.000000	2.030666
O	2.030666	2.030666	0.000000
Re	0.000000	0.000000	0.000000
Ta	2.030666	2.030666	2.030666
O	0.000000	2.030666	6.091999
O	2.030666	0.000000	6.091999
O	2.030666	2.030666	4.061333
Re	0.000000	0.000000	4.061333
Ta	2.030666	2.030666	6.091999
O	0.000000	6.091999	2.030666
O	2.030666	4.061333	2.030666
O	2.030666	6.091999	0.000000
Re	0.000000	4.061333	0.000000
Ta	2.030666	6.091999	2.030666
O	0.000000	6.091999	6.091999
O	2.030666	4.061333	6.091999
O	2.030666	6.091999	4.061333
Re	0.000000	4.061333	4.061333
Ta	2.030666	6.091999	6.091999
O	4.061333	2.030666	2.030666
O	6.091999	0.000000	2.030666
O	6.091999	2.030666	0.000000
Re	4.061333	0.000000	0.000000
Ta	6.091999	2.030666	2.030666
O	4.061333	2.030666	6.091999
O	6.091999	0.000000	6.091999
O	6.091999	2.030666	4.061333
Re	4.061333	0.000000	4.061333
Ta	6.091999	2.030666	6.091999
O	4.061333	6.091999	2.030666
O	6.091999	4.061333	2.030666
O	6.091999	6.091999	0.000000
Re	4.061333	4.061333	0.000000
Ta	6.091999	6.091999	2.030666
O	4.061333	6.091999	6.091999
O	6.091999	4.061333	6.091999
O	6.091999	6.091999	4.061333
Re	4.061333	4.061333	4.061333
Ta	6.091999	6.091999	6.091999
