112

B	0.000000	0.000000	0.000000
B	2.540573	-2.537932	-2.537932
Cs	-1.270281	-1.268961	-3.806893
Cs	1.270281	1.268961	-3.806893
Cs	6.351427	-1.268961	-1.268961
Cs	3.810864	1.268961	-1.268961
O	1.703448	-3.373821	-1.702042
O	0.837125	0.835890	-0.835890
O	1.703448	-1.702042	-3.373821
O	3.377697	-1.702042	-1.702042
O	3.377700	-3.373820	-3.373821
O	4.244021	4.239974	-0.835890
O	4.244021	0.835890	-4.239974
O	0.837125	4.239974	-4.239974
B	5.081148	5.075862	0.000000
B	7.621720	2.537930	-2.537932
Cs	3.810866	3.806901	-3.806893
Cs	6.351429	6.344823	-3.806893
Cs	11.432575	3.806901	-1.268961
Cs	8.892012	6.344823	-1.268961
O	6.784596	1.702041	-1.702042
O	5.918272	5.911752	-0.835890
O	6.784596	3.373820	-3.373821
O	8.458845	3.373820	-1.702042
O	8.458847	1.702042	-3.373821
O	9.325169	9.315836	-0.835890
O	9.325169	5.911752	-4.239974
O	5.918272	9.315836	-4.239974
B	-5.081148	0.000000	-5.075862
B	-2.540575	-2.537932	-7.613794
Cs	-6.351429	-1.268961	-8.882755
Cs	-3.810866	1.268961	-8.882755
Cs	1.270279	-1.268961	-6.344823
Cs	-1.270284	1.268961	-6.344823
O	-3.377700	-3.373821	-6.777904
O	-4.244023	0.835890	-5.911752
O	-3.377699	-1.702042	-8.449683
O	-1.703450	-1.702042	-6.777904
O	-1.703448	-3.373820	-8.449683
O	-0.837127	4.239974	-5.911752
O	-0.837127	0.835890	-9.315836
O	-4.244023	4.239974	-9.315836
B	0.000000	5.075862	-5.075862
B	2.540573	2.537930	-7.613794
Cs	-1.270281	3.806901	-8.882755
Cs	1.270281	6.344823	-8.882755
Cs	6.351427	3.806901	-6.344823
Cs	3.810864	6.344823	-6.344823
O	1.703448	1.702041	-6.777904
O	0.837125	5.911752	-5.911752
O	1.703448	3.373820	-8.449683
O	3.377697	3.373820	-6.777904
O	3.377700	1.702042	-8.449683
O	4.244021	9.315836	-5.911752
O	4.244021	5.911752	-9.315836
O	0.837125	9.315836	-9.315836
B	5.081148	-5.075862	0.000000
B	7.621720	-7.613794	-2.537932
Cs	3.810866	-6.344823	-3.806893
Cs	6.351429	-3.806901	-3.806893
Cs	11.432575	-6.344823	-1.268961
Cs	8.892012	-3.806901	-1.268961
O	6.784596	-8.449683	-1.702042
O	5.918272	-4.239972	-0.835890
O	6.784596	-6.777904	-3.373821
O	8.458845	-6.777904	-1.702042
O	8.458847	-8.449682	-3.373821
O	9.325169	-0.835888	-0.835890
O	9.325169	-4.239972	-4.239974
O	5.918272	-0.835889	-4.239974
B	10.162295	0.000000	0.000000
B	12.702868	-2.537932	-2.537932
Cs	8.892014	-1.268961	-3.806893
Cs	11.432577	1.268961	-3.806893
Cs	16.513722	-1.268961	-1.268961
Cs	13.973159	1.268961	-1.268961
O	11.865743	-3.373821	-1.702042
O	10.999420	0.835890	-0.835890
O	11.865744	-1.702042	-3.373821
O	13.539993	-1.702042	-1.702042
O	13.539995	-3.373820	-3.373821
O	14.406316	4.239974	-0.835890
O	14.406316	0.835890	-4.239974
O	10.999420	4.239974	-4.239974
B	0.000000	-5.075862	-5.075862
B	2.540573	-7.613794	-7.613794
Cs	-1.270281	-6.344823	-8.882755
Cs	1.270281	-3.806901	-8.882755
Cs	6.351427	-6.344823	-6.344823
Cs	3.810864	-3.806901	-6.344823
O	1.703448	-8.449683	-6.777904
O	0.837125	-4.239972	-5.911752
O	1.703448	-6.777904	-8.449683
O	3.377697	-6.777904	-6.777904
O	3.377700	-8.449682	-8.449683
O	4.244021	-0.835888	-5.911752
O	4.244021	-4.239972	-9.315836
O	0.837125	-0.835889	-9.315836
B	5.081148	0.000000	-5.075862
B	7.621720	-2.537932	-7.613794
Cs	3.810866	-1.268961	-8.882755
Cs	6.351429	1.268961	-8.882755
Cs	11.432575	-1.268961	-6.344823
Cs	8.892012	1.268961	-6.344823
O	6.784596	-3.373821	-6.777904
O	5.918272	0.835890	-5.911752
O	6.784596	-1.702042	-8.449683
O	8.458845	-1.702042	-6.777904
O	8.458847	-3.373820	-8.449683
O	9.325169	4.239974	-5.911752
O	9.325169	0.835890	-9.315836
O	5.918272	4.239974	-9.315836
