40

Np	-0.000000	-0.000004	-0.000015
Tc	1.987409	1.987332	1.987328
O	1.987431	1.987301	3.974659
O	1.987400	3.974696	1.987306
O	3.974800	1.987319	1.987355
Np	0.000058	-0.000059	3.974645
Tc	1.987467	1.987277	5.961988
O	1.987489	1.987246	7.949318
O	1.987458	3.974641	5.961966
O	3.974858	1.987265	5.962015
Np	-0.000011	3.974728	-0.000070
Tc	1.987398	5.962064	1.987274
O	1.987420	5.962033	3.974604
O	1.987390	7.949428	1.987251
O	3.974790	5.962052	1.987300
Np	0.000047	3.974673	3.974590
Tc	1.987456	5.962009	5.961934
O	1.987478	5.961978	7.949264
O	1.987447	7.949373	5.961911
O	3.974847	5.961997	5.961960
Np	3.974779	-0.000015	0.000043
Tc	5.962188	1.987321	1.987386
O	5.962210	1.987290	3.974716
O	5.962179	3.974685	1.987364
O	7.949579	1.987308	1.987413
Np	3.974837	-0.000070	3.974702
Tc	5.962246	1.987266	5.962046
O	5.962268	1.987235	7.949376
O	5.962237	3.974630	5.962023
O	7.949637	1.987254	5.962072
Np	3.974768	3.974717	-0.000012
Tc	5.962177	5.962053	1.987331
O	5.962199	5.962022	3.974662
O	5.962169	7.949417	1.987309
O	7.949569	5.962041	1.987358
Np	3.974826	3.974662	3.974648
Tc	5.962235	5.961998	5.961991
O	5.962257	5.961967	7.949321
O	5.962226	7.949362	5.961969
O	7.949626	5.961986	5.962018
