40

Cs	0.000000	0.000000	0.000000
Na	2.203219	2.203219	2.203219
O	2.203219	2.203219	0.000000
O	2.203219	0.000000	2.203219
O	0.000000	2.203219	2.203219
Cs	0.000000	0.000000	4.406437
Na	2.203219	2.203219	6.609656
O	2.203219	2.203219	4.406437
O	2.203219	0.000000	6.609656
O	0.000000	2.203219	6.609656
Cs	0.000000	4.406437	0.000000
Na	2.203219	6.609656	2.203219
O	2.203219	6.609656	0.000000
O	2.203219	4.406437	2.203219
O	0.000000	6.609656	2.203219
Cs	0.000000	4.406437	4.406437
Na	2.203219	6.609656	6.609656
O	2.203219	6.609656	4.406437
O	2.203219	4.406437	6.609656
O	0.000000	6.609656	6.609656
Cs	4.406437	0.000000	0.000000
Na	6.609656	2.203219	2.203219
O	6.609656	2.203219	0.000000
O	6.609656	0.000000	2.203219
O	4.406437	2.203219	2.203219
Cs	4.406437	0.000000	4.406437
Na	6.609656	2.203219	6.609656
O	6.609656	2.203219	4.406437
O	6.609656	0.000000	6.609656
O	4.406437	2.203219	6.609656
Cs	4.406437	4.406437	0.000000
Na	6.609656	6.609656	2.203219
O	6.609656	6.609656	0.000000
O	6.609656	4.406437	2.203219
O	4.406437	6.609656	2.203219
Cs	4.406437	4.406437	4.406437
Na	6.609656	6.609656	6.609656
O	6.609656	6.609656	4.406437
O	6.609656	4.406437	6.609656
O	4.406437	6.609656	6.609656
