40

Ge	1.856884	1.856884	1.856884
Ni	0.000000	0.000000	0.000000
O	1.856884	1.856884	0.000000
O	1.856884	0.000000	1.856884
O	0.000000	1.856884	1.856884
Ge	1.856884	1.856884	5.570648
Ni	0.000000	0.000000	3.713764
O	1.856884	1.856884	3.713764
O	1.856884	0.000000	5.570648
O	0.000000	1.856884	5.570648
Ge	1.856884	5.570648	1.856884
Ni	0.000000	3.713764	0.000000
O	1.856884	5.570648	0.000000
O	1.856884	3.713764	1.856884
O	0.000000	5.570648	1.856884
Ge	1.856884	5.570648	5.570648
Ni	0.000000	3.713764	3.713764
O	1.856884	5.570648	3.713764
O	1.856884	3.713764	5.570648
O	0.000000	5.570648	5.570648
Ge	5.570648	1.856884	1.856884
Ni	3.713764	0.000000	0.000000
O	5.570648	1.856884	0.000000
O	5.570648	0.000000	1.856884
O	3.713764	1.856884	1.856884
Ge	5.570648	1.856884	5.570648
Ni	3.713764	0.000000	3.713764
O	5.570648	1.856884	3.713764
O	5.570648	0.000000	5.570648
O	3.713764	1.856884	5.570648
Ge	5.570648	5.570648	1.856884
Ni	3.713764	3.713764	0.000000
O	5.570648	5.570648	0.000000
O	5.570648	3.713764	1.856884
O	3.713764	5.570648	1.856884
Ge	5.570648	5.570648	5.570648
Ni	3.713764	3.713764	3.713764
O	5.570648	5.570648	3.713764
O	5.570648	3.713764	5.570648
O	3.713764	5.570648	5.570648
