40

Ge	1.857897	1.857897	1.857897
Ni	0.000000	0.000000	0.000000
O	0.000000	1.857897	1.857897
O	1.857897	0.000000	1.857897
O	1.857897	1.857897	0.000000
Ge	1.857897	1.857897	5.573690
Ni	0.000000	0.000000	3.715793
O	0.000000	1.857897	5.573690
O	1.857897	0.000000	5.573690
O	1.857897	1.857897	3.715793
Ge	1.857897	5.573690	1.857897
Ni	0.000000	3.715793	0.000000
O	0.000000	5.573690	1.857897
O	1.857897	3.715793	1.857897
O	1.857897	5.573690	0.000000
Ge	1.857897	5.573690	5.573690
Ni	0.000000	3.715793	3.715793
O	0.000000	5.573690	5.573690
O	1.857897	3.715793	5.573690
O	1.857897	5.573690	3.715793
Ge	5.573690	1.857897	1.857897
Ni	3.715793	0.000000	0.000000
O	3.715793	1.857897	1.857897
O	5.573690	0.000000	1.857897
O	5.573690	1.857897	0.000000
Ge	5.573690	1.857897	5.573690
Ni	3.715793	0.000000	3.715793
O	3.715793	1.857897	5.573690
O	5.573690	0.000000	5.573690
O	5.573690	1.857897	3.715793
Ge	5.573690	5.573690	1.857897
Ni	3.715793	3.715793	0.000000
O	3.715793	5.573690	1.857897
O	5.573690	3.715793	1.857897
O	5.573690	5.573690	0.000000
Ge	5.573690	5.573690	5.573690
Ni	3.715793	3.715793	3.715793
O	3.715793	5.573690	5.573690
O	5.573690	3.715793	5.573690
O	5.573690	5.573690	3.715793
