40

Ge	0.000000	0.000000	0.000000
O	2.187550	2.187550	0.000000
O	0.000000	2.187550	2.187550
O	2.187550	0.000000	2.187550
Sr	2.187550	2.187550	2.187550
Ge	0.000000	0.000000	4.375115
O	2.187550	2.187550	4.375115
O	0.000000	2.187550	6.562665
O	2.187550	0.000000	6.562665
Sr	2.187550	2.187550	6.562665
Ge	0.000000	4.375115	0.000000
O	2.187550	6.562665	0.000000
O	0.000000	6.562665	2.187550
O	2.187550	4.375115	2.187550
Sr	2.187550	6.562665	2.187550
Ge	0.000000	4.375115	4.375115
O	2.187550	6.562665	4.375115
O	0.000000	6.562665	6.562665
O	2.187550	4.375115	6.562665
Sr	2.187550	6.562665	6.562665
Ge	4.375115	0.000000	0.000000
O	6.562665	2.187550	0.000000
O	4.375115	2.187550	2.187550
O	6.562665	0.000000	2.187550
Sr	6.562665	2.187550	2.187550
Ge	4.375115	0.000000	4.375115
O	6.562665	2.187550	4.375115
O	4.375115	2.187550	6.562665
O	6.562665	0.000000	6.562665
Sr	6.562665	2.187550	6.562665
Ge	4.375115	4.375115	0.000000
O	6.562665	6.562665	0.000000
O	4.375115	6.562665	2.187550
O	6.562665	4.375115	2.187550
Sr	6.562665	6.562665	2.187550
Ge	4.375115	4.375115	4.375115
O	6.562665	6.562665	4.375115
O	4.375115	6.562665	6.562665
O	6.562665	4.375115	6.562665
Sr	6.562665	6.562665	6.562665
