40

O	1.937967	1.937967	0.000000
O	1.937967	0.000000	1.937967
O	0.000000	1.937967	1.937967
Pd	0.000000	0.000000	0.000000
Ru	1.937967	1.937967	1.937967
O	1.937967	1.937967	3.875935
O	1.937967	0.000000	5.813902
O	0.000000	1.937967	5.813902
Pd	0.000000	0.000000	3.875935
Ru	1.937967	1.937967	5.813902
O	1.937967	5.813902	0.000000
O	1.937967	3.875935	1.937967
O	0.000000	5.813902	1.937967
Pd	0.000000	3.875935	0.000000
Ru	1.937967	5.813902	1.937967
O	1.937967	5.813902	3.875935
O	1.937967	3.875935	5.813902
O	0.000000	5.813902	5.813902
Pd	0.000000	3.875935	3.875935
Ru	1.937967	5.813902	5.813902
O	5.813902	1.937967	0.000000
O	5.813902	0.000000	1.937967
O	3.875935	1.937967	1.937967
Pd	3.875935	0.000000	0.000000
Ru	5.813902	1.937967	1.937967
O	5.813902	1.937967	3.875935
O	5.813902	0.000000	5.813902
O	3.875935	1.937967	5.813902
Pd	3.875935	0.000000	3.875935
Ru	5.813902	1.937967	5.813902
O	5.813902	5.813902	0.000000
O	5.813902	3.875935	1.937967
O	3.875935	5.813902	1.937967
Pd	3.875935	3.875935	0.000000
Ru	5.813902	5.813902	1.937967
O	5.813902	5.813902	3.875935
O	5.813902	3.875935	5.813902
O	3.875935	5.813902	5.813902
Pd	3.875935	3.875935	3.875935
Ru	5.813902	5.813902	5.813902
