40

O	0.000000	1.973847	1.973847
O	1.973847	0.000000	1.973847
O	1.973847	1.973847	0.000000
Pd	1.973847	1.973847	1.973847
Ru	0.000000	0.000000	0.000000
O	0.000000	1.973847	5.921540
O	1.973847	0.000000	5.921540
O	1.973847	1.973847	3.947693
Pd	1.973847	1.973847	5.921540
Ru	0.000000	0.000000	3.947693
O	0.000000	5.921540	1.973847
O	1.973847	3.947693	1.973847
O	1.973847	5.921540	0.000000
Pd	1.973847	5.921540	1.973847
Ru	0.000000	3.947693	0.000000
O	0.000000	5.921540	5.921540
O	1.973847	3.947693	5.921540
O	1.973847	5.921540	3.947693
Pd	1.973847	5.921540	5.921540
Ru	0.000000	3.947693	3.947693
O	3.947693	1.973847	1.973847
O	5.921540	0.000000	1.973847
O	5.921540	1.973847	0.000000
Pd	5.921540	1.973847	1.973847
Ru	3.947693	0.000000	0.000000
O	3.947693	1.973847	5.921540
O	5.921540	0.000000	5.921540
O	5.921540	1.973847	3.947693
Pd	5.921540	1.973847	5.921540
Ru	3.947693	0.000000	3.947693
O	3.947693	5.921540	1.973847
O	5.921540	3.947693	1.973847
O	5.921540	5.921540	0.000000
Pd	5.921540	5.921540	1.973847
Ru	3.947693	3.947693	0.000000
O	3.947693	5.921540	5.921540
O	5.921540	3.947693	5.921540
O	5.921540	5.921540	3.947693
Pd	5.921540	5.921540	5.921540
Ru	3.947693	3.947693	3.947693
