112

Li	0.000000	0.000000	0.000000
Li	2.091938	-2.091938	-2.091938
O	3.229006	-0.954870	-0.954870
O	-0.954870	0.954870	-3.229006
O	0.954870	-0.954870	-3.229006
O	1.137068	1.137068	-1.137068
O	5.138745	0.954870	-0.954870
O	3.046807	3.046807	-1.137068
O	1.137068	3.046807	-3.046807
O	3.046807	1.137068	-3.046807
Ti	-1.045969	-1.045969	-3.137907
Ti	3.137907	1.045969	-1.045969
Ti	5.229844	-1.045969	-1.045969
Ti	1.045969	1.045969	-3.137907
Li	4.183875	4.183875	0.000000
Li	6.275813	2.091938	-2.091938
O	7.412881	3.229006	-0.954870
O	3.229006	5.138745	-3.229006
O	5.138745	3.229006	-3.229006
O	5.320943	5.320943	-1.137068
O	9.322620	5.138745	-0.954870
O	7.230683	7.230683	-1.137068
O	5.320943	7.230683	-3.046807
O	7.230683	5.320943	-3.046807
Ti	3.137907	3.137907	-3.137907
Ti	7.321782	5.229844	-1.045969
Ti	9.413720	3.137907	-1.045969
Ti	5.229844	5.229844	-3.137907
Li	-4.183875	0.000000	-4.183875
Li	-2.091938	-2.091938	-6.275813
O	-0.954870	-0.954870	-5.138745
O	-5.138745	0.954870	-7.412881
O	-3.229006	-0.954870	-7.412881
O	-3.046807	1.137068	-5.320943
O	0.954870	0.954870	-5.138745
O	-1.137068	3.046807	-5.320943
O	-3.046807	3.046807	-7.230683
O	-1.137068	1.137068	-7.230683
Ti	-5.229844	-1.045969	-7.321782
Ti	-1.045969	1.045969	-5.229844
Ti	1.045969	-1.045969	-5.229844
Ti	-3.137907	1.045969	-7.321782
Li	0.000000	4.183875	-4.183875
Li	2.091938	2.091938	-6.275813
O	3.229006	3.229006	-5.138745
O	-0.954870	5.138745	-7.412881
O	0.954870	3.229006	-7.412881
O	1.137068	5.320943	-5.320943
O	5.138745	5.138745	-5.138745
O	3.046807	7.230683	-5.320943
O	1.137068	7.230683	-7.230683
O	3.046807	5.320943	-7.230683
Ti	-1.045969	3.137907	-7.321782
Ti	3.137907	5.229844	-5.229844
Ti	5.229844	3.137907	-5.229844
Ti	1.045969	5.229844	-7.321782
Li	4.183875	-4.183875	0.000000
Li	6.275813	-6.275813	-2.091938
O	7.412881	-5.138745	-0.954870
O	3.229006	-3.229006	-3.229006
O	5.138745	-5.138745	-3.229006
O	5.320943	-3.046807	-1.137068
O	9.322620	-3.229006	-0.954870
O	7.230683	-1.137068	-1.137068
O	5.320943	-1.137068	-3.046807
O	7.230683	-3.046807	-3.046807
Ti	3.137907	-5.229844	-3.137907
Ti	7.321782	-3.137907	-1.045969
Ti	9.413720	-5.229844	-1.045969
Ti	5.229844	-3.137907	-3.137907
Li	8.367751	0.000000	0.000000
Li	10.459688	-2.091938	-2.091938
O	11.596756	-0.954870	-0.954870
O	7.412881	0.954870	-3.229006
O	9.322620	-0.954870	-3.229006
O	9.504819	1.137068	-1.137068
O	13.506496	0.954870	-0.954870
O	11.414558	3.046807	-1.137068
O	9.504819	3.046807	-3.046807
O	11.414558	1.137068	-3.046807
Ti	7.321782	-1.045969	-3.137907
Ti	11.505657	1.045969	-1.045969
Ti	13.597595	-1.045969	-1.045969
Ti	9.413720	1.045969	-3.137907
Li	0.000000	-4.183875	-4.183875
Li	2.091938	-6.275813	-6.275813
O	3.229006	-5.138745	-5.138745
O	-0.954870	-3.229006	-7.412881
O	0.954870	-5.138745	-7.412881
O	1.137068	-3.046807	-5.320943
O	5.138745	-3.229006	-5.138745
O	3.046807	-1.137068	-5.320943
O	1.137068	-1.137068	-7.230683
O	3.046807	-3.046807	-7.230683
Ti	-1.045969	-5.229844	-7.321782
Ti	3.137907	-3.137907	-5.229844
Ti	5.229844	-5.229844	-5.229844
Ti	1.045969	-3.137907	-7.321782
Li	4.183875	0.000000	-4.183875
Li	6.275813	-2.091938	-6.275813
O	7.412881	-0.954870	-5.138745
O	3.229006	0.954870	-7.412881
O	5.138745	-0.954870	-7.412881
O	5.320943	1.137068	-5.320943
O	9.322620	0.954870	-5.138745
O	7.230683	3.046807	-5.320943
O	5.320943	3.046807	-7.230683
O	7.230683	1.137068	-7.230683
Ti	3.137907	-1.045969	-7.321782
Ti	7.321782	1.045969	-5.229844
Ti	9.413720	-1.045969	-5.229844
Ti	5.229844	1.045969	-7.321782
