40

O	1.953500	0.000000	1.953500
O	0.000000	1.953500	1.953500
O	1.953500	1.953500	0.000000
Ti	0.000000	0.000000	0.000000
W	1.953500	1.953500	1.953500
O	1.953500	0.000000	5.860500
O	0.000000	1.953500	5.860500
O	1.953500	1.953500	3.907000
Ti	0.000000	0.000000	3.907000
W	1.953500	1.953500	5.860500
O	1.953500	3.907000	1.953500
O	0.000000	5.860500	1.953500
O	1.953500	5.860500	0.000000
Ti	0.000000	3.907000	0.000000
W	1.953500	5.860500	1.953500
O	1.953500	3.907000	5.860500
O	0.000000	5.860500	5.860500
O	1.953500	5.860500	3.907000
Ti	0.000000	3.907000	3.907000
W	1.953500	5.860500	5.860500
O	5.860500	0.000000	1.953500
O	3.907000	1.953500	1.953500
O	5.860500	1.953500	0.000000
Ti	3.907000	0.000000	0.000000
W	5.860500	1.953500	1.953500
O	5.860500	0.000000	5.860500
O	3.907000	1.953500	5.860500
O	5.860500	1.953500	3.907000
Ti	3.907000	0.000000	3.907000
W	5.860500	1.953500	5.860500
O	5.860500	3.907000	1.953500
O	3.907000	5.860500	1.953500
O	5.860500	5.860500	0.000000
Ti	3.907000	3.907000	0.000000
W	5.860500	5.860500	1.953500
O	5.860500	3.907000	5.860500
O	3.907000	5.860500	5.860500
O	5.860500	5.860500	3.907000
Ti	3.907000	3.907000	3.907000
W	5.860500	5.860500	5.860500
