40

Np	0.000000	0.000000	0.000000
O	1.898423	1.898423	0.000000
O	1.898423	0.000000	1.898423
O	0.000000	1.898423	1.898423
Si	1.898423	1.898423	1.898423
Np	0.000000	0.000000	3.796840
O	1.898423	1.898423	3.796840
O	1.898423	0.000000	5.695263
O	0.000000	1.898423	5.695263
Si	1.898423	1.898423	5.695263
Np	0.000000	3.796840	0.000000
O	1.898423	5.695263	0.000000
O	1.898423	3.796840	1.898423
O	0.000000	5.695263	1.898423
Si	1.898423	5.695263	1.898423
Np	0.000000	3.796840	3.796840
O	1.898423	5.695263	3.796840
O	1.898423	3.796840	5.695263
O	0.000000	5.695263	5.695263
Si	1.898423	5.695263	5.695263
Np	3.796840	0.000000	0.000000
O	5.695263	1.898423	0.000000
O	5.695263	0.000000	1.898423
O	3.796840	1.898423	1.898423
Si	5.695263	1.898423	1.898423
Np	3.796840	0.000000	3.796840
O	5.695263	1.898423	3.796840
O	5.695263	0.000000	5.695263
O	3.796840	1.898423	5.695263
Si	5.695263	1.898423	5.695263
Np	3.796840	3.796840	0.000000
O	5.695263	5.695263	0.000000
O	5.695263	3.796840	1.898423
O	3.796840	5.695263	1.898423
Si	5.695263	5.695263	1.898423
Np	3.796840	3.796840	3.796840
O	5.695263	5.695263	3.796840
O	5.695263	3.796840	5.695263
O	3.796840	5.695263	5.695263
Si	5.695263	5.695263	5.695263
