128

O	4.383079	1.461026	1.461026
O	1.461026	1.461026	4.383079
O	1.461026	4.383079	1.461026
O	4.383079	4.383079	4.383079
O	1.461026	4.383079	4.383079
O	4.383079	4.383079	1.461026
O	1.461026	1.461026	1.461026
O	4.383079	1.461026	4.383079
Pd	4.383079	0.000000	2.922053
Pd	2.922053	4.383079	0.000000
Pd	0.000000	2.922053	4.383079
Pd	0.000000	2.922053	1.461026
Pd	1.461026	0.000000	2.922053
Pd	2.922053	1.461026	0.000000
Cd	2.922053	2.922053	2.922053
Cd	0.000000	0.000000	0.000000
O	4.383079	1.461026	7.305132
O	1.461026	1.461026	10.227185
O	1.461026	4.383079	7.305132
O	4.383079	4.383079	10.227185
O	1.461026	4.383079	10.227185
O	4.383079	4.383079	7.305132
O	1.461026	1.461026	7.305132
O	4.383079	1.461026	10.227185
Pd	4.383079	0.000000	8.766158
Pd	2.922053	4.383079	5.844106
Pd	0.000000	2.922053	10.227185
Pd	0.000000	2.922053	7.305132
Pd	1.461026	0.000000	8.766158
Pd	2.922053	1.461026	5.844106
Cd	2.922053	2.922053	8.766158
Cd	0.000000	0.000000	5.844106
O	4.383079	7.305132	1.461026
O	1.461026	7.305132	4.383079
O	1.461026	10.227185	1.461026
O	4.383079	10.227185	4.383079
O	1.461026	10.227185	4.383079
O	4.383079	10.227185	1.461026
O	1.461026	7.305132	1.461026
O	4.383079	7.305132	4.383079
Pd	4.383079	5.844106	2.922053
Pd	2.922053	10.227185	0.000000
Pd	0.000000	8.766158	4.383079
Pd	0.000000	8.766158	1.461026
Pd	1.461026	5.844106	2.922053
Pd	2.922053	7.305132	0.000000
Cd	2.922053	8.766158	2.922053
Cd	0.000000	5.844106	0.000000
O	4.383079	7.305132	7.305132
O	1.461026	7.305132	10.227185
O	1.461026	10.227185	7.305132
O	4.383079	10.227185	10.227185
O	1.461026	10.227185	10.227185
O	4.383079	10.227185	7.305132
O	1.461026	7.305132	7.305132
O	4.383079	7.305132	10.227185
Pd	4.383079	5.844106	8.766158
Pd	2.922053	10.227185	5.844106
Pd	0.000000	8.766158	10.227185
Pd	0.000000	8.766158	7.305132
Pd	1.461026	5.844106	8.766158
Pd	2.922053	7.305132	5.844106
Cd	2.922053	8.766158	8.766158
Cd	0.000000	5.844106	5.844106
O	10.227185	1.461026	1.461026
O	7.305132	1.461026	4.383079
O	7.305132	4.383079	1.461026
O	10.227185	4.383079	4.383079
O	7.305132	4.383079	4.383079
O	10.227185	4.383079	1.461026
O	7.305132	1.461026	1.461026
O	10.227185	1.461026	4.383079
Pd	10.227185	0.000000	2.922053
Pd	8.766158	4.383079	0.000000
Pd	5.844106	2.922053	4.383079
Pd	5.844106	2.922053	1.461026
Pd	7.305132	0.000000	2.922053
Pd	8.766158	1.461026	0.000000
Cd	8.766158	2.922053	2.922053
Cd	5.844106	0.000000	0.000000
O	10.227185	1.461026	7.305132
O	7.305132	1.461026	10.227185
O	7.305132	4.383079	7.305132
O	10.227185	4.383079	10.227185
O	7.305132	4.383079	10.227185
O	10.227185	4.383079	7.305132
O	7.305132	1.461026	7.305132
O	10.227185	1.461026	10.227185
Pd	10.227185	0.000000	8.766158
Pd	8.766158	4.383079	5.844106
Pd	5.844106	2.922053	10.227185
Pd	5.844106	2.922053	7.305132
Pd	7.305132	0.000000	8.766158
Pd	8.766158	1.461026	5.844106
Cd	8.766158	2.922053	8.766158
Cd	5.844106	0.000000	5.844106
O	10.227185	7.305132	1.461026
O	7.305132	7.305132	4.383079
O	7.305132	10.227185	1.461026
O	10.227185	10.227185	4.383079
O	7.305132	10.227185	4.383079
O	10.227185	10.227185	1.461026
O	7.305132	7.305132	1.461026
O	10.227185	7.305132	4.383079
Pd	10.227185	5.844106	2.922053
Pd	8.766158	10.227185	0.000000
Pd	5.844106	8.766158	4.383079
Pd	5.844106	8.766158	1.461026
Pd	7.305132	5.844106	2.922053
Pd	8.766158	7.305132	0.000000
Cd	8.766158	8.766158	2.922053
Cd	5.844106	5.844106	0.000000
O	10.227185	7.305132	7.305132
O	7.305132	7.305132	10.227185
O	7.305132	10.227185	7.305132
O	10.227185	10.227185	10.227185
O	7.305132	10.227185	10.227185
O	10.227185	10.227185	7.305132
O	7.305132	7.305132	7.305132
O	10.227185	7.305132	10.227185
Pd	10.227185	5.844106	8.766158
Pd	8.766158	10.227185	5.844106
Pd	5.844106	8.766158	10.227185
Pd	5.844106	8.766158	7.305132
Pd	7.305132	5.844106	8.766158
Pd	8.766158	7.305132	5.844106
Cd	8.766158	8.766158	8.766158
Cd	5.844106	5.844106	5.844106
