40

Ir	1.977454	1.977454	1.977454
O	1.977454	1.977454	0.000000
O	1.977454	0.000000	1.977454
O	0.000000	1.977454	1.977454
Tc	0.000000	0.000000	0.000000
Ir	1.977454	1.977454	5.932363
O	1.977454	1.977454	3.954909
O	1.977454	0.000000	5.932363
O	0.000000	1.977454	5.932363
Tc	0.000000	0.000000	3.954909
Ir	1.977454	5.932363	1.977454
O	1.977454	5.932363	0.000000
O	1.977454	3.954909	1.977454
O	0.000000	5.932363	1.977454
Tc	0.000000	3.954909	0.000000
Ir	1.977454	5.932363	5.932363
O	1.977454	5.932363	3.954909
O	1.977454	3.954909	5.932363
O	0.000000	5.932363	5.932363
Tc	0.000000	3.954909	3.954909
Ir	5.932363	1.977454	1.977454
O	5.932363	1.977454	0.000000
O	5.932363	0.000000	1.977454
O	3.954909	1.977454	1.977454
Tc	3.954909	0.000000	0.000000
Ir	5.932363	1.977454	5.932363
O	5.932363	1.977454	3.954909
O	5.932363	0.000000	5.932363
O	3.954909	1.977454	5.932363
Tc	3.954909	0.000000	3.954909
Ir	5.932363	5.932363	1.977454
O	5.932363	5.932363	0.000000
O	5.932363	3.954909	1.977454
O	3.954909	5.932363	1.977454
Tc	3.954909	3.954909	0.000000
Ir	5.932363	5.932363	5.932363
O	5.932363	5.932363	3.954909
O	5.932363	3.954909	5.932363
O	3.954909	5.932363	5.932363
Tc	3.954909	3.954909	3.954909
