112

Cs	0.000000	0.000000	0.000000
Cs	2.389540	-2.389794	-2.389794
O	3.895772	-0.883215	-0.883215
O	-0.883299	0.883215	-3.896374
O	0.883299	-0.883215	-3.896374
O	1.506231	1.506579	-1.506579
O	5.662370	0.883215	-0.883215
O	1.506232	3.273009	-3.273009
O	3.272839	3.273009	-1.506579
O	3.272840	1.506579	-3.273009
Pt	-1.194765	-1.194892	-3.584686
Pt	1.194765	1.194892	-3.584686
Pt	3.584306	1.194892	-1.194892
Pt	5.973836	-1.194892	-1.194892
Cs	4.779072	4.779588	0.000000
Cs	7.168612	2.389794	-2.389794
O	8.674844	3.896374	-0.883215
O	3.895773	5.662803	-3.896374
O	5.662371	3.896374	-3.896374
O	6.285303	6.286168	-1.506579
O	10.441442	5.662803	-0.883215
O	6.285303	8.052598	-3.273009
O	8.051911	8.052598	-1.506579
O	8.051911	6.286168	-3.273009
Pt	3.584306	3.584696	-3.584686
Pt	5.973837	5.974481	-3.584686
Pt	8.363377	5.974481	-1.194892
Pt	10.752908	3.584696	-1.194892
Cs	-4.779072	0.000000	-4.779588
Cs	-2.389531	-2.389794	-7.169383
O	-0.883300	-0.883215	-5.662803
O	-5.662371	0.883215	-8.675962
O	-3.895773	-0.883215	-8.675962
O	-3.272840	1.506579	-6.286168
O	0.883298	0.883215	-5.662803
O	-3.272840	3.273009	-8.052598
O	-1.506232	3.273009	-6.286168
O	-1.506232	1.506579	-8.052598
Pt	-5.973837	-1.194892	-8.364275
Pt	-3.584306	1.194892	-8.364275
Pt	-1.194766	1.194892	-5.974481
Pt	1.194765	-1.194892	-5.974481
Cs	0.000000	4.779588	-4.779588
Cs	2.389540	2.389794	-7.169383
O	3.895772	3.896374	-5.662803
O	-0.883299	5.662803	-8.675962
O	0.883299	3.896374	-8.675962
O	1.506231	6.286168	-6.286168
O	5.662370	5.662803	-5.662803
O	1.506232	8.052598	-8.052598
O	3.272839	8.052598	-6.286168
O	3.272840	6.286168	-8.052598
Pt	-1.194765	3.584696	-8.364275
Pt	1.194765	5.974481	-8.364275
Pt	3.584306	5.974481	-5.974481
Pt	5.973836	3.584696	-5.974481
Cs	4.779072	-4.779588	0.000000
Cs	7.168612	-7.169383	-2.389794
O	8.674844	-5.662803	-0.883215
O	3.895773	-3.896374	-3.896374
O	5.662371	-5.662803	-3.896374
O	6.285303	-3.273009	-1.506579
O	10.441442	-3.896374	-0.883215
O	6.285303	-1.506579	-3.273009
O	8.051911	-1.506579	-1.506579
O	8.051911	-3.273009	-3.273009
Pt	3.584306	-5.974481	-3.584686
Pt	5.973837	-3.584696	-3.584686
Pt	8.363377	-3.584696	-1.194892
Pt	10.752908	-5.974481	-1.194892
Cs	9.558144	0.000000	0.000000
Cs	11.947684	-2.389794	-2.389794
O	13.453916	-0.883215	-0.883215
O	8.674844	0.883215	-3.896374
O	10.441443	-0.883215	-3.896374
O	11.064375	1.506579	-1.506579
O	15.220514	0.883215	-0.883215
O	11.064375	3.273009	-3.273009
O	12.830983	3.273009	-1.506579
O	12.830983	1.506579	-3.273009
Pt	8.363378	-1.194892	-3.584686
Pt	10.752909	1.194892	-3.584686
Pt	13.142449	1.194892	-1.194892
Pt	15.531980	-1.194892	-1.194892
Cs	0.000000	-4.779588	-4.779588
Cs	2.389540	-7.169383	-7.169383
O	3.895772	-5.662803	-5.662803
O	-0.883299	-3.896374	-8.675962
O	0.883299	-5.662803	-8.675962
O	1.506231	-3.273009	-6.286168
O	5.662370	-3.896374	-5.662803
O	1.506232	-1.506579	-8.052598
O	3.272839	-1.506579	-6.286168
O	3.272840	-3.273009	-8.052598
Pt	-1.194765	-5.974481	-8.364275
Pt	1.194765	-3.584696	-8.364275
Pt	3.584306	-3.584696	-5.974481
Pt	5.973836	-5.974481	-5.974481
Cs	4.779072	0.000000	-4.779588
Cs	7.168612	-2.389794	-7.169383
O	8.674844	-0.883215	-5.662803
O	3.895773	0.883215	-8.675962
O	5.662371	-0.883215	-8.675962
O	6.285303	1.506579	-6.286168
O	10.441442	0.883215	-5.662803
O	6.285303	3.273009	-8.052598
O	8.051911	3.273009	-6.286168
O	8.051911	1.506579	-8.052598
Pt	3.584306	-1.194892	-8.364275
Pt	5.973837	1.194892	-8.364275
Pt	8.363377	1.194892	-5.974481
Pt	10.752908	-1.194892	-5.974481
