184

B	-3.737262	-1.868631	-0.000000
B	-3.737262	0.000000	-1.868631
B	-1.868631	-3.737262	-0.000000
B	-1.868631	0.000000	-3.737262
B	0.000000	-3.737262	-1.868631
B	0.000000	-1.868631	-3.737262
O	0.000000	0.000000	0.000000
O	-3.105922	-1.048721	1.048721
O	-3.105922	1.048721	-1.048721
O	-1.048721	-3.105922	1.048721
O	-1.048721	1.048721	-3.105922
O	-4.368602	-1.048721	-1.048721
O	-2.688541	-2.688541	-0.631340
O	-2.688541	-0.631340	-2.688541
O	1.048721	-3.105922	-1.048721
O	1.048721	-1.048721	-3.105922
O	-0.631340	-2.688541	-2.688541
O	-1.048721	-4.368602	-1.048721
O	-1.048721	-1.048721	-4.368602
Zn	-1.139269	-1.139269	1.139269
Zn	-1.139269	1.139269	-1.139269
Zn	1.139269	-1.139269	-1.139269
Zn	-2.597993	-2.597993	-2.597993
B	0.000000	-5.605893	-3.737262
B	0.000000	-3.737262	-5.605893
B	1.868631	-7.474524	-3.737262
B	1.868631	-3.737262	-7.474524
B	3.737262	-7.474524	-5.605893
B	3.737262	-5.605893	-7.474524
O	3.737262	-3.737262	-3.737262
O	0.631340	-4.785983	-2.688541
O	0.631340	-2.688541	-4.785983
O	2.688541	-6.843184	-2.688541
O	2.688541	-2.688541	-6.843184
O	-0.631340	-4.785983	-4.785983
O	1.048721	-6.425803	-4.368602
O	1.048721	-4.368602	-6.425803
O	4.785983	-6.843184	-4.785983
O	4.785983	-4.785983	-6.843184
O	3.105922	-6.425803	-6.425803
O	2.688541	-8.105864	-4.785983
O	2.688541	-4.785983	-8.105864
Zn	2.597993	-4.876531	-2.597993
Zn	2.597993	-2.597993	-4.876531
Zn	4.876531	-4.876531	-4.876531
Zn	1.139269	-6.335255	-6.335255
B	-7.474524	1.868631	-3.737262
B	-7.474524	3.737262	-5.605893
B	-5.605893	0.000000	-3.737262
B	-5.605893	3.737262	-7.474524
B	-3.737262	0.000000	-5.605893
B	-3.737262	1.868631	-7.474524
O	-3.737262	3.737262	-3.737262
O	-6.843184	2.688541	-2.688541
O	-6.843184	4.785983	-4.785983
O	-4.785983	0.631340	-2.688541
O	-4.785983	4.785983	-6.843184
O	-8.105864	2.688541	-4.785983
O	-6.425803	1.048721	-4.368602
O	-6.425803	3.105922	-6.425803
O	-2.688541	0.631340	-4.785983
O	-2.688541	2.688541	-6.843184
O	-4.368602	1.048721	-6.425803
O	-4.785983	-0.631340	-4.785983
O	-4.785983	2.688541	-8.105864
Zn	-4.876531	2.597993	-2.597993
Zn	-4.876531	4.876531	-4.876531
Zn	-2.597993	2.597993	-4.876531
Zn	-6.335255	1.139269	-6.335255
B	-3.737262	-1.868631	-7.474524
B	-3.737262	0.000000	-9.343155
B	-1.868631	-3.737262	-7.474524
B	-1.868631	0.000000	-11.211786
B	0.000000	-3.737262	-9.343155
B	0.000000	-1.868631	-11.211786
O	0.000000	0.000000	-7.474524
O	-3.105922	-1.048721	-6.425803
O	-3.105922	1.048721	-8.523245
O	-1.048721	-3.105922	-6.425803
O	-1.048721	1.048721	-10.580446
O	-4.368602	-1.048721	-8.523245
O	-2.688541	-2.688541	-8.105864
O	-2.688541	-0.631340	-10.163065
O	1.048721	-3.105922	-8.523245
O	1.048721	-1.048721	-10.580446
O	-0.631340	-2.688541	-10.163065
O	-1.048721	-4.368602	-8.523245
O	-1.048721	-1.048721	-11.843125
Zn	-1.139269	-1.139269	-6.335255
Zn	-1.139269	1.139269	-8.613793
Zn	1.139269	-1.139269	-8.613793
Zn	-2.597993	-2.597993	-10.072517
B	-7.474524	-5.605893	3.737262
B	-7.474524	-3.737262	1.868631
B	-5.605893	-7.474524	3.737262
B	-5.605893	-3.737262	0.000000
B	-3.737262	-7.474524	1.868631
B	-3.737262	-5.605893	0.000000
O	-3.737262	-3.737262	3.737262
O	-6.843184	-4.785983	4.785983
O	-6.843184	-2.688541	2.688541
O	-4.785983	-6.843184	4.785983
O	-4.785983	-2.688541	0.631340
O	-8.105864	-4.785983	2.688541
O	-6.425803	-6.425803	3.105922
O	-6.425803	-4.368602	1.048721
O	-2.688541	-6.843184	2.688541
O	-2.688541	-4.785983	0.631340
O	-4.368602	-6.425803	1.048721
O	-4.785983	-8.105864	2.688541
O	-4.785983	-4.785983	-0.631340
Zn	-4.876531	-4.876531	4.876531
Zn	-4.876531	-2.597993	2.597993
Zn	-2.597993	-4.876531	2.597993
Zn	-6.335255	-6.335255	1.139269
B	-3.737262	-9.343155	0.000000
B	-3.737262	-7.474524	-1.868631
B	-1.868631	-11.211786	0.000000
B	-1.868631	-7.474524	-3.737262
B	0.000000	-11.211786	-1.868631
B	0.000000	-9.343155	-3.737262
O	0.000000	-7.474524	0.000000
O	-3.105922	-8.523245	1.048721
O	-3.105922	-6.425803	-1.048721
O	-1.048721	-10.580446	1.048721
O	-1.048721	-6.425803	-3.105922
O	-4.368602	-8.523245	-1.048721
O	-2.688541	-10.163065	-0.631340
O	-2.688541	-8.105864	-2.688541
O	1.048721	-10.580446	-1.048721
O	1.048721	-8.523245	-3.105922
O	-0.631340	-10.163065	-2.688541
O	-1.048721	-11.843125	-1.048721
O	-1.048721	-8.523245	-4.368602
Zn	-1.139269	-8.613793	1.139269
Zn	-1.139269	-6.335255	-1.139269
Zn	1.139269	-8.613793	-1.139269
Zn	-2.597993	-10.072517	-2.597993
B	-11.211786	-1.868631	0.000000
B	-11.211786	0.000000	-1.868631
B	-9.343155	-3.737262	0.000000
B	-9.343155	0.000000	-3.737262
B	-7.474524	-3.737262	-1.868631
B	-7.474524	-1.868631	-3.737262
O	-7.474524	0.000000	0.000000
O	-10.580446	-1.048721	1.048721
O	-10.580446	1.048721	-1.048721
O	-8.523245	-3.105922	1.048721
O	-8.523245	1.048721	-3.105922
O	-11.843125	-1.048721	-1.048721
O	-10.163065	-2.688541	-0.631340
O	-10.163065	-0.631340	-2.688541
O	-6.425803	-3.105922	-1.048721
O	-6.425803	-1.048721	-3.105922
O	-8.105864	-2.688541	-2.688541
O	-8.523245	-4.368602	-1.048721
O	-8.523245	-1.048721	-4.368602
Zn	-8.613793	-1.139269	1.139269
Zn	-8.613793	1.139269	-1.139269
Zn	-6.335255	-1.139269	-1.139269
Zn	-10.072517	-2.597993	-2.597993
B	-7.474524	-5.605893	-3.737262
B	-7.474524	-3.737262	-5.605893
B	-5.605893	-7.474524	-3.737262
B	-5.605893	-3.737262	-7.474524
B	-3.737262	-7.474524	-5.605893
B	-3.737262	-5.605893	-7.474524
O	-3.737262	-3.737262	-3.737262
O	-6.843184	-4.785983	-2.688541
O	-6.843184	-2.688541	-4.785983
O	-4.785983	-6.843184	-2.688541
O	-4.785983	-2.688541	-6.843184
O	-8.105864	-4.785983	-4.785983
O	-6.425803	-6.425803	-4.368602
O	-6.425803	-4.368602	-6.425803
O	-2.688541	-6.843184	-4.785983
O	-2.688541	-4.785983	-6.843184
O	-4.368602	-6.425803	-6.425803
O	-4.785983	-8.105864	-4.785983
O	-4.785983	-4.785983	-8.105864
Zn	-4.876531	-4.876531	-2.597993
Zn	-4.876531	-2.597993	-4.876531
Zn	-2.597993	-4.876531	-4.876531
Zn	-6.335255	-6.335255	-6.335255
