40

O	2.199810	2.199810	0.000000
O	0.000000	2.199810	2.199810
O	2.199810	0.000000	2.199810
Pa	2.199810	2.199810	2.199810
Sn_d	0.000000	0.000000	0.000000
O	2.199810	2.199810	4.399633
O	0.000000	2.199810	6.599443
O	2.199810	0.000000	6.599443
Pa	2.199810	2.199810	6.599443
Sn_d	0.000000	0.000000	4.399633
O	2.199810	6.599443	0.000000
O	0.000000	6.599443	2.199810
O	2.199810	4.399633	2.199810
Pa	2.199810	6.599443	2.199810
Sn_d	0.000000	4.399633	0.000000
O	2.199810	6.599443	4.399633
O	0.000000	6.599443	6.599443
O	2.199810	4.399633	6.599443
Pa	2.199810	6.599443	6.599443
Sn_d	0.000000	4.399633	4.399633
O	6.599443	2.199810	0.000000
O	4.399633	2.199810	2.199810
O	6.599443	0.000000	2.199810
Pa	6.599443	2.199810	2.199810
Sn_d	4.399633	0.000000	0.000000
O	6.599443	2.199810	4.399633
O	4.399633	2.199810	6.599443
O	6.599443	0.000000	6.599443
Pa	6.599443	2.199810	6.599443
Sn_d	4.399633	0.000000	4.399633
O	6.599443	6.599443	0.000000
O	4.399633	6.599443	2.199810
O	6.599443	4.399633	2.199810
Pa	6.599443	6.599443	2.199810
Sn_d	4.399633	4.399633	0.000000
O	6.599443	6.599443	4.399633
O	4.399633	6.599443	6.599443
O	6.599443	4.399633	6.599443
Pa	6.599443	6.599443	6.599443
Sn_d	4.399633	4.399633	4.399633
