40

O	2.158094	2.158094	0.000000
O	2.158094	0.000000	2.158094
O	0.000000	2.158094	2.158094
Tb	2.158094	2.158094	2.158094
Ti	0.000000	0.000000	0.000000
O	2.158094	2.158094	4.316189
O	2.158094	0.000000	6.474283
O	0.000000	2.158094	6.474283
Tb	2.158094	2.158094	6.474283
Ti	0.000000	0.000000	4.316189
O	2.158094	6.474283	0.000000
O	2.158094	4.316189	2.158094
O	0.000000	6.474283	2.158094
Tb	2.158094	6.474283	2.158094
Ti	0.000000	4.316189	0.000000
O	2.158094	6.474283	4.316189
O	2.158094	4.316189	6.474283
O	0.000000	6.474283	6.474283
Tb	2.158094	6.474283	6.474283
Ti	0.000000	4.316189	4.316189
O	6.474283	2.158094	0.000000
O	6.474283	0.000000	2.158094
O	4.316189	2.158094	2.158094
Tb	6.474283	2.158094	2.158094
Ti	4.316189	0.000000	0.000000
O	6.474283	2.158094	4.316189
O	6.474283	0.000000	6.474283
O	4.316189	2.158094	6.474283
Tb	6.474283	2.158094	6.474283
Ti	4.316189	0.000000	4.316189
O	6.474283	6.474283	0.000000
O	6.474283	4.316189	2.158094
O	4.316189	6.474283	2.158094
Tb	6.474283	6.474283	2.158094
Ti	4.316189	4.316189	0.000000
O	6.474283	6.474283	4.316189
O	6.474283	4.316189	6.474283
O	4.316189	6.474283	6.474283
Tb	6.474283	6.474283	6.474283
Ti	4.316189	4.316189	4.316189
