40

Cr	1.903296	1.903296	1.903296
O	1.903296	1.903296	0.000000
O	0.000000	1.903296	1.903296
O	1.903296	0.000000	1.903296
Pr	-0.015000	0.000000	0.000000
Cr	1.903296	1.903296	5.709888
O	1.903296	1.903296	3.806592
O	0.000000	1.903296	5.709888
O	1.903296	0.000000	5.709888
Pr	-0.015000	0.000000	3.806592
Cr	1.903296	5.709888	1.903296
O	1.903296	5.709888	0.000000
O	0.000000	5.709888	1.903296
O	1.903296	3.806592	1.903296
Pr	-0.015000	3.806592	0.000000
Cr	1.903296	5.709888	5.709888
O	1.903296	5.709888	3.806592
O	0.000000	5.709888	5.709888
O	1.903296	3.806592	5.709888
Pr	-0.015000	3.806592	3.806592
Cr	5.709888	1.903296	1.903296
O	5.709888	1.903296	0.000000
O	3.806592	1.903296	1.903296
O	5.709888	0.000000	1.903296
Pr	3.791592	0.000000	0.000000
Cr	5.709888	1.903296	5.709888
O	5.709888	1.903296	3.806592
O	3.806592	1.903296	5.709888
O	5.709888	0.000000	5.709888
Pr	3.791592	0.000000	3.806592
Cr	5.709888	5.709888	1.903296
O	5.709888	5.709888	0.000000
O	3.806592	5.709888	1.903296
O	5.709888	3.806592	1.903296
Pr	3.791592	3.806592	0.000000
Cr	5.709888	5.709888	5.709888
O	5.709888	5.709888	3.806592
O	3.806592	5.709888	5.709888
O	5.709888	3.806592	5.709888
Pr	3.791592	3.806592	3.806592
