40

F	1.893387	1.893387	1.893387
O	0.000000	1.893387	1.893387
O	1.893387	0.000000	1.893387
O	1.893387	1.893387	0.000000
Te	0.000000	0.000000	0.000000
F	1.893387	1.893387	5.680160
O	0.000000	1.893387	5.680160
O	1.893387	0.000000	5.680160
O	1.893387	1.893387	3.786773
Te	0.000000	0.000000	3.786773
F	1.893387	5.680160	1.893387
O	0.000000	5.680160	1.893387
O	1.893387	3.786773	1.893387
O	1.893387	5.680160	0.000000
Te	0.000000	3.786773	0.000000
F	1.893387	5.680160	5.680160
O	0.000000	5.680160	5.680160
O	1.893387	3.786773	5.680160
O	1.893387	5.680160	3.786773
Te	0.000000	3.786773	3.786773
F	5.680160	1.893387	1.893387
O	3.786773	1.893387	1.893387
O	5.680160	0.000000	1.893387
O	5.680160	1.893387	0.000000
Te	3.786773	0.000000	0.000000
F	5.680160	1.893387	5.680160
O	3.786773	1.893387	5.680160
O	5.680160	0.000000	5.680160
O	5.680160	1.893387	3.786773
Te	3.786773	0.000000	3.786773
F	5.680160	5.680160	1.893387
O	3.786773	5.680160	1.893387
O	5.680160	3.786773	1.893387
O	5.680160	5.680160	0.000000
Te	3.786773	3.786773	0.000000
F	5.680160	5.680160	5.680160
O	3.786773	5.680160	5.680160
O	5.680160	3.786773	5.680160
O	5.680160	5.680160	3.786773
Te	3.786773	3.786773	3.786773
