40

F	0.000000	0.000000	0.000000
O	0.000000	1.933846	1.933846
O	1.933846	0.000000	1.933846
O	1.933846	1.933846	0.000000
Te	1.933846	1.933846	1.933846
F	0.000000	0.000000	3.867692
O	0.000000	1.933846	5.801538
O	1.933846	0.000000	5.801538
O	1.933846	1.933846	3.867692
Te	1.933846	1.933846	5.801538
F	0.000000	3.867692	0.000000
O	0.000000	5.801538	1.933846
O	1.933846	3.867692	1.933846
O	1.933846	5.801538	0.000000
Te	1.933846	5.801538	1.933846
F	0.000000	3.867692	3.867692
O	0.000000	5.801538	5.801538
O	1.933846	3.867692	5.801538
O	1.933846	5.801538	3.867692
Te	1.933846	5.801538	5.801538
F	3.867692	0.000000	0.000000
O	3.867692	1.933846	1.933846
O	5.801538	0.000000	1.933846
O	5.801538	1.933846	0.000000
Te	5.801538	1.933846	1.933846
F	3.867692	0.000000	3.867692
O	3.867692	1.933846	5.801538
O	5.801538	0.000000	5.801538
O	5.801538	1.933846	3.867692
Te	5.801538	1.933846	5.801538
F	3.867692	3.867692	0.000000
O	3.867692	5.801538	1.933846
O	5.801538	3.867692	1.933846
O	5.801538	5.801538	0.000000
Te	5.801538	5.801538	1.933846
F	3.867692	3.867692	3.867692
O	3.867692	5.801538	5.801538
O	5.801538	3.867692	5.801538
O	5.801538	5.801538	3.867692
Te	5.801538	5.801538	5.801538
