112

Co	0.000000	0.000000	0.000000
Co	2.367132	-2.367244	-2.367244
O	1.061942	1.062133	-1.062133
O	3.429074	-1.305101	-1.305101
O	-1.305179	1.305101	-3.429377
O	1.305179	-1.305101	-3.429377
O	1.061942	3.672346	-3.672346
O	3.672311	3.672346	-1.062133
O	3.672311	1.062133	-3.672346
O	6.039442	1.305101	-1.305101
Sr	-1.183561	-1.183622	-3.550856
Sr	1.183561	1.183622	-3.550856
Sr	5.917824	-1.183622	-1.183622
Sr	3.550692	1.183622	-1.183622
Co	4.734258	4.734479	0.000000
Co	7.101389	2.367235	-2.367244
O	5.796200	5.796612	-1.062133
O	8.163331	3.429378	-1.305101
O	3.429078	6.039580	-3.429377
O	6.039437	3.429378	-3.429377
O	5.796200	8.406825	-3.672346
O	8.406568	8.406825	-1.062133
O	8.406568	5.796612	-3.672346
O	10.773700	6.039580	-1.305101
Sr	3.550697	3.550857	-3.550856
Sr	5.917818	5.918101	-3.550856
Sr	10.652081	3.550857	-1.183622
Sr	8.284950	5.918101	-1.183622
Co	-4.734258	0.000000	-4.734479
Co	-2.367126	-2.367244	-7.101723
O	-3.672315	1.062133	-5.796612
O	-1.305184	-1.305101	-6.039580
O	-6.039437	1.305101	-8.163856
O	-3.429078	-1.305101	-8.163856
O	-3.672315	3.672346	-8.406825
O	-1.061947	3.672346	-5.796612
O	-1.061947	1.062133	-8.406825
O	1.305185	1.305101	-6.039580
Sr	-5.917818	-1.183622	-8.285336
Sr	-3.550697	1.183622	-8.285336
Sr	1.183566	-1.183622	-5.918101
Sr	-1.183565	1.183622	-5.918101
Co	0.000000	4.734479	-4.734479
Co	2.367132	2.367235	-7.101723
O	1.061942	5.796612	-5.796612
O	3.429074	3.429378	-6.039580
O	-1.305179	6.039580	-8.163856
O	1.305179	3.429378	-8.163856
O	1.061942	8.406825	-8.406825
O	3.672311	8.406825	-5.796612
O	3.672311	5.796612	-8.406825
O	6.039442	6.039580	-6.039580
Sr	-1.183561	3.550857	-8.285336
Sr	1.183561	5.918101	-8.285336
Sr	5.917824	3.550857	-5.918101
Sr	3.550692	5.918101	-5.918101
Co	4.734258	-4.734479	0.000000
Co	7.101389	-7.101723	-2.367244
O	5.796200	-3.672346	-1.062133
O	8.163331	-6.039580	-1.305101
O	3.429078	-3.429378	-3.429377
O	6.039437	-6.039580	-3.429377
O	5.796200	-1.062134	-3.672346
O	8.406568	-1.062134	-1.062133
O	8.406568	-3.672346	-3.672346
O	10.773700	-3.429378	-1.305101
Sr	3.550697	-5.918101	-3.550856
Sr	5.917818	-3.550857	-3.550856
Sr	10.652081	-5.918101	-1.183622
Sr	8.284950	-3.550857	-1.183622
Co	9.468515	0.000000	0.000000
Co	11.835647	-2.367244	-2.367244
O	10.530457	1.062133	-1.062133
O	12.897589	-1.305101	-1.305101
O	8.163336	1.305101	-3.429377
O	10.773694	-1.305101	-3.429377
O	10.530457	3.672346	-3.672346
O	13.140826	3.672346	-1.062133
O	13.140826	1.062133	-3.672346
O	15.507957	1.305101	-1.305101
Sr	8.284954	-1.183622	-3.550856
Sr	10.652076	1.183622	-3.550856
Sr	15.386339	-1.183622	-1.183622
Sr	13.019207	1.183622	-1.183622
Co	0.000000	-4.734479	-4.734479
Co	2.367132	-7.101723	-7.101723
O	1.061942	-3.672346	-5.796612
O	3.429074	-6.039580	-6.039580
O	-1.305179	-3.429378	-8.163856
O	1.305179	-6.039580	-8.163856
O	1.061942	-1.062134	-8.406825
O	3.672311	-1.062134	-5.796612
O	3.672311	-3.672346	-8.406825
O	6.039442	-3.429378	-6.039580
Sr	-1.183561	-5.918101	-8.285336
Sr	1.183561	-3.550857	-8.285336
Sr	5.917824	-5.918101	-5.918101
Sr	3.550692	-3.550857	-5.918101
Co	4.734258	0.000000	-4.734479
Co	7.101389	-2.367244	-7.101723
O	5.796200	1.062133	-5.796612
O	8.163331	-1.305101	-6.039580
O	3.429078	1.305101	-8.163856
O	6.039437	-1.305101	-8.163856
O	5.796200	3.672346	-8.406825
O	8.406568	3.672346	-5.796612
O	8.406568	1.062133	-8.406825
O	10.773700	1.305101	-6.039580
Sr	3.550697	-1.183622	-8.285336
Sr	5.917818	1.183622	-8.285336
Sr	10.652081	-1.183622	-5.918101
Sr	8.284950	1.183622	-5.918101
