112

Ga	0.000000	0.000000	0.000000
Ga	2.313945	-2.312408	-2.312408
Gd	-1.156968	-1.156209	-3.468618
Gd	5.784857	-1.156209	-1.156209
Gd	1.156968	1.156209	-3.468618
Gd	3.470912	1.156209	-1.156209
O	3.414841	-1.212039	-1.212039
O	-1.213049	1.212039	-3.412787
O	1.213049	-1.212039	-3.412787
O	1.100896	1.100369	-1.100369
O	5.840938	1.212039	-1.212039
O	1.100896	3.524448	-3.524448
O	3.526993	3.524448	-1.100369
O	3.526993	1.100369	-3.524448
Ga	4.627889	4.624824	0.000000
Ga	6.941834	2.312416	-2.312408
Gd	3.470922	3.468615	-3.468618
Gd	10.412747	3.468615	-1.156209
Gd	5.784857	5.781033	-3.468618
Gd	8.098802	5.781033	-1.156209
O	8.042730	3.412785	-1.212039
O	3.414841	5.836863	-3.412787
O	5.840938	3.412785	-3.412787
O	5.728786	5.725193	-1.100369
O	10.468828	5.836863	-1.212039
O	5.728786	8.149272	-3.524448
O	8.154883	8.149272	-1.100369
O	8.154883	5.725193	-3.524448
Ga	-4.627889	0.000000	-4.624824
Ga	-2.313944	-2.312408	-6.937232
Gd	-5.784857	-1.156209	-8.093442
Gd	1.156968	-1.156209	-5.781033
Gd	-3.470922	1.156209	-8.093442
Gd	-1.156977	1.156209	-5.781033
O	-1.213048	-1.212039	-5.836863
O	-5.840938	1.212039	-8.037611
O	-3.414841	-1.212039	-8.037611
O	-3.526993	1.100369	-5.725193
O	1.213049	1.212039	-5.836863
O	-3.526993	3.524448	-8.149272
O	-1.100896	3.524448	-5.725193
O	-1.100896	1.100369	-8.149272
Ga	0.000000	4.624824	-4.624824
Ga	2.313945	2.312416	-6.937232
Gd	-1.156968	3.468615	-8.093442
Gd	5.784857	3.468615	-5.781033
Gd	1.156968	5.781033	-8.093442
Gd	3.470912	5.781033	-5.781033
O	3.414841	3.412785	-5.836863
O	-1.213049	5.836863	-8.037611
O	1.213049	3.412785	-8.037611
O	1.100896	5.725193	-5.725193
O	5.840938	5.836863	-5.836863
O	1.100896	8.149272	-8.149272
O	3.526993	8.149272	-5.725193
O	3.526993	5.725193	-8.149272
Ga	4.627889	-4.624824	0.000000
Ga	6.941834	-6.937232	-2.312408
Gd	3.470922	-5.781033	-3.468618
Gd	10.412747	-5.781033	-1.156209
Gd	5.784857	-3.468615	-3.468618
Gd	8.098802	-3.468615	-1.156209
O	8.042730	-5.836863	-1.212039
O	3.414841	-3.412785	-3.412787
O	5.840938	-5.836863	-3.412787
O	5.728786	-3.524455	-1.100369
O	10.468828	-3.412785	-1.212039
O	5.728786	-1.100376	-3.524448
O	8.154883	-1.100376	-1.100369
O	8.154883	-3.524455	-3.524448
Ga	9.255779	0.000000	0.000000
Ga	11.569724	-2.312408	-2.312408
Gd	8.098811	-1.156209	-3.468618
Gd	15.040636	-1.156209	-1.156209
Gd	10.412746	1.156209	-3.468618
Gd	12.726691	1.156209	-1.156209
O	12.670620	-1.212039	-1.212039
O	8.042730	1.212039	-3.412787
O	10.468827	-1.212039	-3.412787
O	10.356675	1.100369	-1.100369
O	15.096717	1.212039	-1.212039
O	10.356675	3.524448	-3.524448
O	12.782772	3.524448	-1.100369
O	12.782772	1.100369	-3.524448
Ga	0.000000	-4.624824	-4.624824
Ga	2.313945	-6.937232	-6.937232
Gd	-1.156968	-5.781033	-8.093442
Gd	5.784857	-5.781033	-5.781033
Gd	1.156968	-3.468615	-8.093442
Gd	3.470912	-3.468615	-5.781033
O	3.414841	-5.836863	-5.836863
O	-1.213049	-3.412785	-8.037611
O	1.213049	-5.836863	-8.037611
O	1.100896	-3.524455	-5.725193
O	5.840938	-3.412785	-5.836863
O	1.100896	-1.100376	-8.149272
O	3.526993	-1.100376	-5.725193
O	3.526993	-3.524455	-8.149272
Ga	4.627889	0.000000	-4.624824
Ga	6.941834	-2.312408	-6.937232
Gd	3.470922	-1.156209	-8.093442
Gd	10.412747	-1.156209	-5.781033
Gd	5.784857	1.156209	-8.093442
Gd	8.098802	1.156209	-5.781033
O	8.042730	-1.212039	-5.836863
O	3.414841	1.212039	-8.037611
O	5.840938	-1.212039	-8.037611
O	5.728786	1.100369	-5.725193
O	10.468828	1.212039	-5.836863
O	5.728786	3.524448	-8.149272
O	8.154883	3.524448	-5.725193
O	8.154883	1.100369	-8.149272
