40

Cu	1.875979	1.875979	1.875979
O	1.875979	1.875979	0.000000
O	1.875979	0.000000	1.875979
O	0.000000	1.875979	1.875979
Tm	0.000000	0.000000	0.000000
Cu	1.875979	1.875979	5.627936
O	1.875979	1.875979	3.751957
O	1.875979	0.000000	5.627936
O	0.000000	1.875979	5.627936
Tm	0.000000	0.000000	3.751957
Cu	1.875979	5.627936	1.875979
O	1.875979	5.627936	0.000000
O	1.875979	3.751957	1.875979
O	0.000000	5.627936	1.875979
Tm	0.000000	3.751957	0.000000
Cu	1.875979	5.627936	5.627936
O	1.875979	5.627936	3.751957
O	1.875979	3.751957	5.627936
O	0.000000	5.627936	5.627936
Tm	0.000000	3.751957	3.751957
Cu	5.627936	1.875979	1.875979
O	5.627936	1.875979	0.000000
O	5.627936	0.000000	1.875979
O	3.751957	1.875979	1.875979
Tm	3.751957	0.000000	0.000000
Cu	5.627936	1.875979	5.627936
O	5.627936	1.875979	3.751957
O	5.627936	0.000000	5.627936
O	3.751957	1.875979	5.627936
Tm	3.751957	0.000000	3.751957
Cu	5.627936	5.627936	1.875979
O	5.627936	5.627936	0.000000
O	5.627936	3.751957	1.875979
O	3.751957	5.627936	1.875979
Tm	3.751957	3.751957	0.000000
Cu	5.627936	5.627936	5.627936
O	5.627936	5.627936	3.751957
O	5.627936	3.751957	5.627936
O	3.751957	5.627936	5.627936
Tm	3.751957	3.751957	3.751957
