40

Fe	1.891284	1.891284	1.891284
Mn	0.000000	0.000000	0.000000
O	0.000000	1.891284	1.891284
O	1.891284	0.000000	1.891284
O	1.891284	1.891284	0.000000
Fe	1.891284	1.891284	5.673851
Mn	0.000000	0.000000	3.782567
O	0.000000	1.891284	5.673851
O	1.891284	0.000000	5.673851
O	1.891284	1.891284	3.782567
Fe	1.891284	5.673851	1.891284
Mn	0.000000	3.782567	0.000000
O	0.000000	5.673851	1.891284
O	1.891284	3.782567	1.891284
O	1.891284	5.673851	0.000000
Fe	1.891284	5.673851	5.673851
Mn	0.000000	3.782567	3.782567
O	0.000000	5.673851	5.673851
O	1.891284	3.782567	5.673851
O	1.891284	5.673851	3.782567
Fe	5.673851	1.891284	1.891284
Mn	3.782567	0.000000	0.000000
O	3.782567	1.891284	1.891284
O	5.673851	0.000000	1.891284
O	5.673851	1.891284	0.000000
Fe	5.673851	1.891284	5.673851
Mn	3.782567	0.000000	3.782567
O	3.782567	1.891284	5.673851
O	5.673851	0.000000	5.673851
O	5.673851	1.891284	3.782567
Fe	5.673851	5.673851	1.891284
Mn	3.782567	3.782567	0.000000
O	3.782567	5.673851	1.891284
O	5.673851	3.782567	1.891284
O	5.673851	5.673851	0.000000
Fe	5.673851	5.673851	5.673851
Mn	3.782567	3.782567	3.782567
O	3.782567	5.673851	5.673851
O	5.673851	3.782567	5.673851
O	5.673851	5.673851	3.782567
