40

Fe	1.894902	1.894902	1.894902
Mn	0.000000	0.000000	0.000000
O	0.000000	1.894902	1.894902
O	1.894902	0.000000	1.894902
O	1.894902	1.894902	0.000000
Fe	1.894902	1.894902	5.684705
Mn	0.000000	0.000000	3.789804
O	0.000000	1.894902	5.684705
O	1.894902	0.000000	5.684705
O	1.894902	1.894902	3.789804
Fe	1.894902	5.684705	1.894902
Mn	0.000000	3.789804	0.000000
O	0.000000	5.684705	1.894902
O	1.894902	3.789804	1.894902
O	1.894902	5.684705	0.000000
Fe	1.894902	5.684705	5.684705
Mn	0.000000	3.789804	3.789804
O	0.000000	5.684705	5.684705
O	1.894902	3.789804	5.684705
O	1.894902	5.684705	3.789804
Fe	5.684705	1.894902	1.894902
Mn	3.789804	0.000000	0.000000
O	3.789804	1.894902	1.894902
O	5.684705	0.000000	1.894902
O	5.684705	1.894902	0.000000
Fe	5.684705	1.894902	5.684705
Mn	3.789804	0.000000	3.789804
O	3.789804	1.894902	5.684705
O	5.684705	0.000000	5.684705
O	5.684705	1.894902	3.789804
Fe	5.684705	5.684705	1.894902
Mn	3.789804	3.789804	0.000000
O	3.789804	5.684705	1.894902
O	5.684705	3.789804	1.894902
O	5.684705	5.684705	0.000000
Fe	5.684705	5.684705	5.684705
Mn	3.789804	3.789804	3.789804
O	3.789804	5.684705	5.684705
O	5.684705	3.789804	5.684705
O	5.684705	5.684705	3.789804
