224

O	1.887359	3.269002	-0.505246
O	2.754655	1.766803	1.947835
O	0.152769	3.269002	1.947835
O	-2.043323	3.539139	5.053578
O	1.023259	5.305942	-3.610989
O	4.083451	3.539139	-3.610989
O	0.867295	1.502199	4.947813
O	-3.063387	5.305942	2.168401
O	6.126774	0.000000	2.168401
O	4.953941	1.502199	-0.831577
O	-1.176028	5.041338	-0.831577
O	4.086646	0.000000	5.053578
Na	4.742292	1.662167	3.353307
Na	-0.931668	4.938029	3.353307
Na	2.850972	4.938029	-1.996154
Na	2.159420	0.000000	3.562670
Na	4.078725	0.000000	0.848364
Na	0.811610	5.145975	0.573895
Na	4.050740	3.275862	0.573895
Na	-2.039362	3.532279	0.848364
Na	2.999015	1.870112	-2.205517
Na	0.120057	3.532279	-2.205517
Na	1.891320	3.275862	3.627776
Na	-1.079710	1.870112	3.562670
Sb	0.000000	0.000000	5.917709
Sb	5.579269	0.000000	-1.972570
Sb	1.141048	1.976352	0.806842
Sb	-2.789635	4.831789	-1.972570
O	1.887359	3.269002	7.832990
O	2.754655	1.766803	10.286071
O	0.152769	3.269002	10.286071
O	-2.043323	3.539139	13.391814
O	1.023259	5.305942	4.727247
O	4.083451	3.539139	4.727247
O	0.867295	1.502199	13.286049
O	-3.063387	5.305942	10.506637
O	6.126774	0.000000	10.506637
O	4.953941	1.502199	7.506659
O	-1.176028	5.041338	7.506659
O	4.086646	0.000000	13.391814
Na	4.742292	1.662167	11.691543
Na	-0.931668	4.938029	11.691543
Na	2.850972	4.938029	6.342083
Na	2.159420	0.000000	11.900907
Na	4.078725	0.000000	9.186600
Na	0.811610	5.145975	8.912131
Na	4.050740	3.275862	8.912131
Na	-2.039362	3.532279	9.186600
Na	2.999015	1.870112	6.132719
Na	0.120057	3.532279	6.132719
Na	1.891320	3.275862	11.966012
Na	-1.079710	1.870112	11.900907
Sb	0.000000	0.000000	14.255945
Sb	5.579269	0.000000	6.365667
Sb	1.141048	1.976352	9.145079
Sb	-2.789635	4.831789	6.365667
O	-2.043323	10.077144	-3.284658
O	-1.176028	8.574944	-0.831577
O	-3.777913	10.077144	-0.831577
O	-5.974005	10.347280	2.274166
O	-2.907424	12.114083	-6.390401
O	0.152769	10.347280	-6.390401
O	-3.063387	8.310341	2.168401
O	-6.994069	12.114083	-0.611011
O	2.196092	6.808141	-0.611011
O	1.023259	8.310341	-3.610989
O	-5.106710	11.849480	-3.610989
O	0.155963	6.808141	2.274166
Na	0.811610	8.470308	0.573895
Na	-4.862350	11.746170	0.573895
Na	-1.079710	11.746170	-4.775566
Na	-1.771262	6.808141	0.783258
Na	0.148042	6.808141	-1.931048
Na	-3.119072	11.954116	-2.205517
Na	0.120057	10.084004	-2.205517
Na	-5.970044	10.340420	-1.931048
Na	-0.931668	8.678254	-4.984929
Na	-3.810625	10.340420	-4.984929
Na	-2.039362	10.084004	0.848364
Na	-5.010392	8.678254	0.783258
Sb	-3.930682	6.808141	3.138297
Sb	1.648587	6.808141	-4.751982
Sb	-2.789635	8.784494	-1.972570
Sb	-6.720317	11.639930	-4.751982
O	-2.043323	10.077144	5.053578
O	-1.176028	8.574944	7.506659
O	-3.777913	10.077144	7.506659
O	-5.974005	10.347280	10.612402
O	-2.907424	12.114083	1.947835
O	0.152769	10.347280	1.947835
O	-3.063387	8.310341	10.506637
O	-6.994069	12.114083	7.727225
O	2.196092	6.808141	7.727225
O	1.023259	8.310341	4.727247
O	-5.106710	11.849480	4.727247
O	0.155963	6.808141	10.612402
Na	0.811610	8.470308	8.912131
Na	-4.862350	11.746170	8.912131
Na	-1.079710	11.746170	3.562671
Na	-1.771262	6.808141	9.121495
Na	0.148042	6.808141	6.407188
Na	-3.119072	11.954116	6.132719
Na	0.120057	10.084004	6.132719
Na	-5.970044	10.340420	6.407188
Na	-0.931668	8.678254	3.353307
Na	-3.810625	10.340420	3.353307
Na	-2.039362	10.084004	9.186600
Na	-5.010392	8.678254	9.121495
Sb	-3.930682	6.808141	11.476533
Sb	1.648587	6.808141	3.586255
Sb	-2.789635	8.784494	6.365667
Sb	-6.720317	11.639930	3.586255
O	9.748724	3.269002	-3.284658
O	10.616019	1.766803	-0.831577
O	8.014133	3.269002	-0.831577
O	5.818042	3.539139	2.274166
O	8.884623	5.305942	-6.390401
O	11.944816	3.539139	-6.390401
O	8.728660	1.502199	2.168401
O	4.797977	5.305942	-0.611011
O	13.988139	0.000000	-0.611011
O	12.815305	1.502199	-3.610989
O	6.685337	5.041338	-3.610989
O	11.948010	0.000000	2.274166
Na	12.603657	1.662167	0.573895
Na	6.929697	4.938029	0.573895
Na	10.712337	4.938029	-4.775566
Na	10.020784	0.000000	0.783258
Na	11.940089	0.000000	-1.931048
Na	8.672975	5.145975	-2.205517
Na	11.912104	3.275862	-2.205517
Na	5.822002	3.532279	-1.931048
Na	10.860379	1.870112	-4.984929
Na	7.981422	3.532279	-4.984929
Na	9.752684	3.275862	0.848364
Na	6.781655	1.870112	0.783258
Sb	7.861364	0.000000	3.138297
Sb	13.440634	0.000000	-4.751982
Sb	9.002412	1.976352	-1.972570
Sb	5.071730	4.831789	-4.751982
O	9.748724	3.269002	5.053578
O	10.616019	1.766803	7.506659
O	8.014133	3.269002	7.506659
O	5.818042	3.539139	10.612402
O	8.884623	5.305942	1.947835
O	11.944816	3.539139	1.947835
O	8.728660	1.502199	10.506637
O	4.797977	5.305942	7.727225
O	13.988139	0.000000	7.727225
O	12.815305	1.502199	4.727247
O	6.685337	5.041338	4.727247
O	11.948010	0.000000	10.612402
Na	12.603657	1.662167	8.912131
Na	6.929697	4.938029	8.912131
Na	10.712337	4.938029	3.562671
Na	10.020784	0.000000	9.121495
Na	11.940089	0.000000	6.407188
Na	8.672975	5.145975	6.132719
Na	11.912104	3.275862	6.132719
Na	5.822002	3.532279	6.407188
Na	10.860379	1.870112	3.353307
Na	7.981422	3.532279	3.353307
Na	9.752684	3.275862	9.186600
Na	6.781655	1.870112	9.121495
Sb	7.861364	0.000000	11.476533
Sb	13.440634	0.000000	3.586255
Sb	9.002412	1.976352	6.365667
Sb	5.071730	4.831789	3.586255
O	5.818042	10.077144	-6.064070
O	6.685337	8.574944	-3.610989
O	4.083451	10.077144	-3.610989
O	1.887359	10.347280	-0.505246
O	4.953941	12.114083	-9.169813
O	8.014133	10.347280	-9.169813
O	4.797977	8.310341	-0.611011
O	0.867295	12.114083	-3.390424
O	10.057456	6.808141	-3.390424
O	8.884623	8.310341	-6.390401
O	2.754655	11.849480	-6.390401
O	8.017328	6.808141	-0.505246
Na	8.672975	8.470308	-2.205517
Na	2.999015	11.746170	-2.205517
Na	6.781655	11.746170	-7.554978
Na	6.090102	6.808141	-1.996154
Na	8.009407	6.808141	-4.710460
Na	4.742292	11.954116	-4.984929
Na	7.981422	10.084004	-4.984929
Na	1.891320	10.340420	-4.710460
Na	6.929697	8.678254	-7.764341
Na	4.050740	10.340420	-7.764341
Na	5.822002	10.084004	-1.931048
Na	2.850972	8.678254	-1.996154
Sb	3.930682	6.808141	0.358885
Sb	9.509952	6.808141	-7.531394
Sb	5.071730	8.784494	-4.751982
Sb	1.141048	11.639930	-7.531394
O	5.818042	10.077144	2.274166
O	6.685337	8.574944	4.727247
O	4.083451	10.077144	4.727247
O	1.887359	10.347280	7.832990
O	4.953941	12.114083	-0.831577
O	8.014133	10.347280	-0.831577
O	4.797977	8.310341	7.727225
O	0.867295	12.114083	4.947813
O	10.057456	6.808141	4.947813
O	8.884623	8.310341	1.947835
O	2.754655	11.849480	1.947835
O	8.017328	6.808141	7.832990
Na	8.672975	8.470308	6.132719
Na	2.999015	11.746170	6.132719
Na	6.781655	11.746170	0.783258
Na	6.090102	6.808141	6.342083
Na	8.009407	6.808141	3.627776
Na	4.742292	11.954116	3.353307
Na	7.981422	10.084004	3.353307
Na	1.891320	10.340420	3.627776
Na	6.929697	8.678254	0.573895
Na	4.050740	10.340420	0.573895
Na	5.822002	10.084004	6.407188
Na	2.850972	8.678254	6.342083
Sb	3.930682	6.808141	8.697121
Sb	9.509952	6.808141	0.806842
Sb	5.071730	8.784494	3.586255
Sb	1.141048	11.639930	0.806842
