40

O	2.087550	2.087550	0.000000
O	0.000000	2.087550	2.087550
O	2.087550	0.000000	2.087550
Pb_d	0.000000	0.000000	0.000000
Zr_sv	2.087550	2.087550	2.087550
O	2.087550	2.087550	4.175101
O	0.000000	2.087550	6.262651
O	2.087550	0.000000	6.262651
Pb_d	0.000000	0.000000	4.175101
Zr_sv	2.087550	2.087550	6.262651
O	2.087550	6.262651	0.000000
O	0.000000	6.262651	2.087550
O	2.087550	4.175101	2.087550
Pb_d	0.000000	4.175101	0.000000
Zr_sv	2.087550	6.262651	2.087550
O	2.087550	6.262651	4.175101
O	0.000000	6.262651	6.262651
O	2.087550	4.175101	6.262651
Pb_d	0.000000	4.175101	4.175101
Zr_sv	2.087550	6.262651	6.262651
O	6.262651	2.087550	0.000000
O	4.175101	2.087550	2.087550
O	6.262651	0.000000	2.087550
Pb_d	4.175101	0.000000	0.000000
Zr_sv	6.262651	2.087550	2.087550
O	6.262651	2.087550	4.175101
O	4.175101	2.087550	6.262651
O	6.262651	0.000000	6.262651
Pb_d	4.175101	0.000000	4.175101
Zr_sv	6.262651	2.087550	6.262651
O	6.262651	6.262651	0.000000
O	4.175101	6.262651	2.087550
O	6.262651	4.175101	2.087550
Pb_d	4.175101	4.175101	0.000000
Zr_sv	6.262651	6.262651	2.087550
O	6.262651	6.262651	4.175101
O	4.175101	6.262651	6.262651
O	6.262651	4.175101	6.262651
Pb_d	4.175101	4.175101	4.175101
Zr_sv	6.262651	6.262651	6.262651
