40

O	2.087983	2.087983	0.000000
O	0.000000	2.087983	2.087983
O	2.087983	0.000000	2.087983
Pb	0.000000	0.000000	0.000000
Zr	2.087983	2.087983	2.087983
O	2.087983	2.087983	4.175959
O	0.000000	2.087983	6.263942
O	2.087983	0.000000	6.263942
Pb	0.000000	0.000000	4.175959
Zr	2.087983	2.087983	6.263942
O	2.087983	6.263942	0.000000
O	0.000000	6.263942	2.087983
O	2.087983	4.175959	2.087983
Pb	0.000000	4.175959	0.000000
Zr	2.087983	6.263942	2.087983
O	2.087983	6.263942	4.175959
O	0.000000	6.263942	6.263942
O	2.087983	4.175959	6.263942
Pb	0.000000	4.175959	4.175959
Zr	2.087983	6.263942	6.263942
O	6.263942	2.087983	0.000000
O	4.175959	2.087983	2.087983
O	6.263942	0.000000	2.087983
Pb	4.175959	0.000000	0.000000
Zr	6.263942	2.087983	2.087983
O	6.263942	2.087983	4.175959
O	4.175959	2.087983	6.263942
O	6.263942	0.000000	6.263942
Pb	4.175959	0.000000	4.175959
Zr	6.263942	2.087983	6.263942
O	6.263942	6.263942	0.000000
O	4.175959	6.263942	2.087983
O	6.263942	4.175959	2.087983
Pb	4.175959	4.175959	0.000000
Zr	6.263942	6.263942	2.087983
O	6.263942	6.263942	4.175959
O	4.175959	6.263942	6.263942
O	6.263942	4.175959	6.263942
Pb	4.175959	4.175959	4.175959
Zr	6.263942	6.263942	6.263942
