40

K	2.156134	2.156134	2.156134
O	2.156134	2.156134	0.000000
O	2.156134	0.000000	2.156134
O	0.000000	2.156134	2.156134
Os	0.000000	0.000000	0.000000
K	2.156134	2.156134	6.468400
O	2.156134	2.156134	4.312266
O	2.156134	0.000000	6.468400
O	0.000000	2.156134	6.468400
Os	0.000000	0.000000	4.312266
K	2.156134	6.468400	2.156134
O	2.156134	6.468400	0.000000
O	2.156134	4.312266	2.156134
O	0.000000	6.468400	2.156134
Os	0.000000	4.312266	0.000000
K	2.156134	6.468400	6.468400
O	2.156134	6.468400	4.312266
O	2.156134	4.312266	6.468400
O	0.000000	6.468400	6.468400
Os	0.000000	4.312266	4.312266
K	6.468400	2.156134	2.156134
O	6.468400	2.156134	0.000000
O	6.468400	0.000000	2.156134
O	4.312266	2.156134	2.156134
Os	4.312266	0.000000	0.000000
K	6.468400	2.156134	6.468400
O	6.468400	2.156134	4.312266
O	6.468400	0.000000	6.468400
O	4.312266	2.156134	6.468400
Os	4.312266	0.000000	4.312266
K	6.468400	6.468400	2.156134
O	6.468400	6.468400	0.000000
O	6.468400	4.312266	2.156134
O	4.312266	6.468400	2.156134
Os	4.312266	4.312266	0.000000
K	6.468400	6.468400	6.468400
O	6.468400	6.468400	4.312266
O	6.468400	4.312266	6.468400
O	4.312266	6.468400	6.468400
Os	4.312266	4.312266	4.312266
