40

Mg	1.905960	1.905960	1.905960
O	1.905960	0.000000	1.905960
O	0.000000	1.905960	1.905960
O	1.905960	1.905960	0.000000
Te	0.000000	0.000000	0.000000
Mg	1.905960	1.905960	5.717881
O	1.905960	0.000000	5.717881
O	0.000000	1.905960	5.717881
O	1.905960	1.905960	3.811921
Te	0.000000	0.000000	3.811921
Mg	1.905960	5.717881	1.905960
O	1.905960	3.811921	1.905960
O	0.000000	5.717881	1.905960
O	1.905960	5.717881	0.000000
Te	0.000000	3.811921	0.000000
Mg	1.905960	5.717881	5.717881
O	1.905960	3.811921	5.717881
O	0.000000	5.717881	5.717881
O	1.905960	5.717881	3.811921
Te	0.000000	3.811921	3.811921
Mg	5.717881	1.905960	1.905960
O	5.717881	0.000000	1.905960
O	3.811921	1.905960	1.905960
O	5.717881	1.905960	0.000000
Te	3.811921	0.000000	0.000000
Mg	5.717881	1.905960	5.717881
O	5.717881	0.000000	5.717881
O	3.811921	1.905960	5.717881
O	5.717881	1.905960	3.811921
Te	3.811921	0.000000	3.811921
Mg	5.717881	5.717881	1.905960
O	5.717881	3.811921	1.905960
O	3.811921	5.717881	1.905960
O	5.717881	5.717881	0.000000
Te	3.811921	3.811921	0.000000
Mg	5.717881	5.717881	5.717881
O	5.717881	3.811921	5.717881
O	3.811921	5.717881	5.717881
O	5.717881	5.717881	3.811921
Te	3.811921	3.811921	3.811921
