112

Eu	0.000000	0.000000	0.000000
Eu	2.338367	-2.338935	-2.338935
O	3.649796	-1.026565	-1.026565
O	-1.026927	1.026565	-3.651315
O	1.026927	-1.026565	-3.651315
O	1.311439	1.312380	-1.312380
O	5.703651	1.026565	-1.026565
O	1.311439	3.365500	-3.365500
O	3.365294	3.365500	-1.312380
O	3.365294	1.312380	-3.365500
Zr	-1.169183	-1.169468	-3.508412
Zr	3.507540	1.169467	-1.169467
Zr	5.845907	-1.169467	-1.169467
Zr	1.169183	1.169467	-3.508412
Eu	4.676727	4.677879	0.000000
Eu	7.015094	2.338944	-2.338935
O	8.326523	3.651314	-1.026565
O	3.649799	5.704444	-3.651315
O	5.703654	3.651314	-3.651315
O	5.988166	5.990259	-1.312380
O	10.380378	5.704444	-1.026565
O	5.988166	8.043379	-3.365500
O	8.042021	8.043379	-1.312380
O	8.042021	5.990259	-3.365500
Zr	3.507543	3.508412	-3.508412
Zr	8.184267	5.847347	-1.169467
Zr	10.522634	3.508412	-1.169467
Zr	5.845910	5.847347	-3.508412
Eu	-4.676727	0.000000	-4.677879
Eu	-2.338360	-2.338935	-7.016814
O	-1.026931	-1.026565	-5.704444
O	-5.703654	1.026565	-8.329194
O	-3.649799	-1.026565	-8.329194
O	-3.365287	1.312380	-5.990259
O	1.026924	1.026565	-5.704444
O	-3.365287	3.365500	-8.043379
O	-1.311433	3.365500	-5.990259
O	-1.311433	1.312380	-8.043379
Zr	-5.845910	-1.169468	-8.186292
Zr	-1.169187	1.169467	-5.847347
Zr	1.169180	-1.169467	-5.847347
Zr	-3.507543	1.169467	-8.186292
Eu	0.000000	4.677879	-4.677879
Eu	2.338367	2.338944	-7.016814
O	3.649796	3.651314	-5.704444
O	-1.026927	5.704444	-8.329194
O	1.026927	3.651314	-8.329194
O	1.311439	5.990259	-5.990259
O	5.703651	5.704444	-5.704444
O	1.311439	8.043379	-8.043379
O	3.365294	8.043379	-5.990259
O	3.365294	5.990259	-8.043379
Zr	-1.169183	3.508412	-8.186292
Zr	3.507540	5.847347	-5.847347
Zr	5.845907	3.508412	-5.847347
Zr	1.169183	5.847347	-8.186292
Eu	4.676727	-4.677879	0.000000
Eu	7.015094	-7.016814	-2.338935
O	8.326523	-5.704444	-1.026565
O	3.649799	-3.651314	-3.651315
O	5.703654	-5.704444	-3.651315
O	5.988166	-3.365499	-1.312380
O	10.380378	-3.651314	-1.026565
O	5.988166	-1.312379	-3.365500
O	8.042021	-1.312379	-1.312380
O	8.042021	-3.365499	-3.365500
Zr	3.507543	-5.847347	-3.508412
Zr	8.184267	-3.508412	-1.169467
Zr	10.522634	-5.847347	-1.169467
Zr	5.845910	-3.508412	-3.508412
Eu	9.353454	0.000000	0.000000
Eu	11.691820	-2.338935	-2.338935
O	13.003250	-1.026565	-1.026565
O	8.326526	1.026565	-3.651315
O	10.380381	-1.026565	-3.651315
O	10.664893	1.312380	-1.312380
O	15.057104	1.026565	-1.026565
O	10.664893	3.365500	-3.365500
O	12.718748	3.365500	-1.312380
O	12.718748	1.312380	-3.365500
Zr	8.184270	-1.169468	-3.508412
Zr	12.860994	1.169467	-1.169467
Zr	15.199361	-1.169467	-1.169467
Zr	10.522637	1.169467	-3.508412
Eu	0.000000	-4.677879	-4.677879
Eu	2.338367	-7.016814	-7.016814
O	3.649796	-5.704444	-5.704444
O	-1.026927	-3.651314	-8.329194
O	1.026927	-5.704444	-8.329194
O	1.311439	-3.365499	-5.990259
O	5.703651	-3.651314	-5.704444
O	1.311439	-1.312379	-8.043379
O	3.365294	-1.312379	-5.990259
O	3.365294	-3.365499	-8.043379
Zr	-1.169183	-5.847347	-8.186292
Zr	3.507540	-3.508412	-5.847347
Zr	5.845907	-5.847347	-5.847347
Zr	1.169183	-3.508412	-8.186292
Eu	4.676727	0.000000	-4.677879
Eu	7.015094	-2.338935	-7.016814
O	8.326523	-1.026565	-5.704444
O	3.649799	1.026565	-8.329194
O	5.703654	-1.026565	-8.329194
O	5.988166	1.312380	-5.990259
O	10.380378	1.026565	-5.704444
O	5.988166	3.365500	-8.043379
O	8.042021	3.365500	-5.990259
O	8.042021	1.312380	-8.043379
Zr	3.507543	-1.169468	-8.186292
Zr	8.184267	1.169467	-5.847347
Zr	10.522634	-1.169467	-5.847347
Zr	5.845910	1.169467	-8.186292
