40

Ac	2.329792	2.329792	2.329792
Ca	0.000000	0.000000	0.000000
O	2.329792	2.329792	0.000000
O	2.329792	0.000000	2.329792
O	0.000000	2.329792	2.329792
Ac	2.329792	2.329792	6.989377
Ca	0.000000	0.000000	4.659585
O	2.329792	2.329792	4.659585
O	2.329792	0.000000	6.989377
O	0.000000	2.329792	6.989377
Ac	2.329792	6.989377	2.329792
Ca	0.000000	4.659585	0.000000
O	2.329792	6.989377	0.000000
O	2.329792	4.659585	2.329792
O	0.000000	6.989377	2.329792
Ac	2.329792	6.989377	6.989377
Ca	0.000000	4.659585	4.659585
O	2.329792	6.989377	4.659585
O	2.329792	4.659585	6.989377
O	0.000000	6.989377	6.989377
Ac	6.989377	2.329792	2.329792
Ca	4.659585	0.000000	0.000000
O	6.989377	2.329792	0.000000
O	6.989377	0.000000	2.329792
O	4.659585	2.329792	2.329792
Ac	6.989377	2.329792	6.989377
Ca	4.659585	0.000000	4.659585
O	6.989377	2.329792	4.659585
O	6.989377	0.000000	6.989377
O	4.659585	2.329792	6.989377
Ac	6.989377	6.989377	2.329792
Ca	4.659585	4.659585	0.000000
O	6.989377	6.989377	0.000000
O	6.989377	4.659585	2.329792
O	4.659585	6.989377	2.329792
Ac	6.989377	6.989377	6.989377
Ca	4.659585	4.659585	4.659585
O	6.989377	6.989377	4.659585
O	6.989377	4.659585	6.989377
O	4.659585	6.989377	6.989377
