40

O	2.086340	0.000000	2.086340
O	0.000000	2.086340	2.086340
O	2.086340	2.086340	0.000000
Ti	0.000000	0.000000	0.000000
Tl_d	2.086340	2.086340	2.086340
O	2.086340	0.000000	6.259029
O	0.000000	2.086340	6.259029
O	2.086340	2.086340	4.172689
Ti	0.000000	0.000000	4.172689
Tl_d	2.086340	2.086340	6.259029
O	2.086340	4.172689	2.086340
O	0.000000	6.259029	2.086340
O	2.086340	6.259029	0.000000
Ti	0.000000	4.172689	0.000000
Tl_d	2.086340	6.259029	2.086340
O	2.086340	4.172689	6.259029
O	0.000000	6.259029	6.259029
O	2.086340	6.259029	4.172689
Ti	0.000000	4.172689	4.172689
Tl_d	2.086340	6.259029	6.259029
O	6.259029	0.000000	2.086340
O	4.172689	2.086340	2.086340
O	6.259029	2.086340	0.000000
Ti	4.172689	0.000000	0.000000
Tl_d	6.259029	2.086340	2.086340
O	6.259029	0.000000	6.259029
O	4.172689	2.086340	6.259029
O	6.259029	2.086340	4.172689
Ti	4.172689	0.000000	4.172689
Tl_d	6.259029	2.086340	6.259029
O	6.259029	4.172689	2.086340
O	4.172689	6.259029	2.086340
O	6.259029	6.259029	0.000000
Ti	4.172689	4.172689	0.000000
Tl_d	6.259029	6.259029	2.086340
O	6.259029	4.172689	6.259029
O	4.172689	6.259029	6.259029
O	6.259029	6.259029	4.172689
Ti	4.172689	4.172689	4.172689
Tl_d	6.259029	6.259029	6.259029
