40

O	0.000000	2.107918	2.107918
O	2.107918	0.000000	2.107918
O	2.107918	2.107918	0.000000
Ti	0.000000	0.000000	0.000000
Tl	2.107918	2.107918	2.107918
O	0.000000	2.107918	6.323755
O	2.107918	0.000000	6.323755
O	2.107918	2.107918	4.215836
Ti	0.000000	0.000000	4.215836
Tl	2.107918	2.107918	6.323755
O	0.000000	6.323755	2.107918
O	2.107918	4.215836	2.107918
O	2.107918	6.323755	0.000000
Ti	0.000000	4.215836	0.000000
Tl	2.107918	6.323755	2.107918
O	0.000000	6.323755	6.323755
O	2.107918	4.215836	6.323755
O	2.107918	6.323755	4.215836
Ti	0.000000	4.215836	4.215836
Tl	2.107918	6.323755	6.323755
O	4.215836	2.107918	2.107918
O	6.323755	0.000000	2.107918
O	6.323755	2.107918	0.000000
Ti	4.215836	0.000000	0.000000
Tl	6.323755	2.107918	2.107918
O	4.215836	2.107918	6.323755
O	6.323755	0.000000	6.323755
O	6.323755	2.107918	4.215836
Ti	4.215836	0.000000	4.215836
Tl	6.323755	2.107918	6.323755
O	4.215836	6.323755	2.107918
O	6.323755	4.215836	2.107918
O	6.323755	6.323755	0.000000
Ti	4.215836	4.215836	0.000000
Tl	6.323755	6.323755	2.107918
O	4.215836	6.323755	6.323755
O	6.323755	4.215836	6.323755
O	6.323755	6.323755	4.215836
Ti	4.215836	4.215836	4.215836
Tl	6.323755	6.323755	6.323755
