40

O	2.090855	2.090855	0.000000
O	2.090855	0.000000	2.090855
O	0.000000	2.090855	2.090855
U	0.000000	0.000000	0.000000
Yb	2.090855	2.090855	2.090855
O	2.090855	2.090855	4.181711
O	2.090855	0.000000	6.272566
O	0.000000	2.090855	6.272566
U	0.000000	0.000000	4.181711
Yb	2.090855	2.090855	6.272566
O	2.090855	6.272566	0.000000
O	2.090855	4.181711	2.090855
O	0.000000	6.272566	2.090855
U	0.000000	4.181711	0.000000
Yb	2.090855	6.272566	2.090855
O	2.090855	6.272566	4.181711
O	2.090855	4.181711	6.272566
O	0.000000	6.272566	6.272566
U	0.000000	4.181711	4.181711
Yb	2.090855	6.272566	6.272566
O	6.272566	2.090855	0.000000
O	6.272566	0.000000	2.090855
O	4.181711	2.090855	2.090855
U	4.181711	0.000000	0.000000
Yb	6.272566	2.090855	2.090855
O	6.272566	2.090855	4.181711
O	6.272566	0.000000	6.272566
O	4.181711	2.090855	6.272566
U	4.181711	0.000000	4.181711
Yb	6.272566	2.090855	6.272566
O	6.272566	6.272566	0.000000
O	6.272566	4.181711	2.090855
O	4.181711	6.272566	2.090855
U	4.181711	4.181711	0.000000
Yb	6.272566	6.272566	2.090855
O	6.272566	6.272566	4.181711
O	6.272566	4.181711	6.272566
O	4.181711	6.272566	6.272566
U	4.181711	4.181711	4.181711
Yb	6.272566	6.272566	6.272566
