40

Ga	1.896905	1.896905	1.896905
O	1.896905	1.896905	0.000000
O	1.896905	0.000000	1.896905
O	0.000000	1.896905	1.896905
Zn	0.000000	0.000000	0.000000
Ga	1.896905	1.896905	5.690717
O	1.896905	1.896905	3.793813
O	1.896905	0.000000	5.690717
O	0.000000	1.896905	5.690717
Zn	0.000000	0.000000	3.793813
Ga	1.896905	5.690717	1.896905
O	1.896905	5.690717	0.000000
O	1.896905	3.793813	1.896905
O	0.000000	5.690717	1.896905
Zn	0.000000	3.793813	0.000000
Ga	1.896905	5.690717	5.690717
O	1.896905	5.690717	3.793813
O	1.896905	3.793813	5.690717
O	0.000000	5.690717	5.690717
Zn	0.000000	3.793813	3.793813
Ga	5.690717	1.896905	1.896905
O	5.690717	1.896905	0.000000
O	5.690717	0.000000	1.896905
O	3.793813	1.896905	1.896905
Zn	3.793813	0.000000	0.000000
Ga	5.690717	1.896905	5.690717
O	5.690717	1.896905	3.793813
O	5.690717	0.000000	5.690717
O	3.793813	1.896905	5.690717
Zn	3.793813	0.000000	3.793813
Ga	5.690717	5.690717	1.896905
O	5.690717	5.690717	0.000000
O	5.690717	3.793813	1.896905
O	3.793813	5.690717	1.896905
Zn	3.793813	3.793813	0.000000
Ga	5.690717	5.690717	5.690717
O	5.690717	5.690717	3.793813
O	5.690717	3.793813	5.690717
O	3.793813	5.690717	5.690717
Zn	3.793813	3.793813	3.793813
