40

Hg	2.107197	2.107197	2.107197
In	0.000000	0.000000	0.000000
O	2.107197	2.107197	0.000000
O	2.107197	0.000000	2.107197
O	0.000000	2.107197	2.107197
Hg	2.107197	2.107197	6.321592
In	0.000000	0.000000	4.214395
O	2.107197	2.107197	4.214395
O	2.107197	0.000000	6.321592
O	0.000000	2.107197	6.321592
Hg	2.107197	6.321592	2.107197
In	0.000000	4.214395	0.000000
O	2.107197	6.321592	0.000000
O	2.107197	4.214395	2.107197
O	0.000000	6.321592	2.107197
Hg	2.107197	6.321592	6.321592
In	0.000000	4.214395	4.214395
O	2.107197	6.321592	4.214395
O	2.107197	4.214395	6.321592
O	0.000000	6.321592	6.321592
Hg	6.321592	2.107197	2.107197
In	4.214395	0.000000	0.000000
O	6.321592	2.107197	0.000000
O	6.321592	0.000000	2.107197
O	4.214395	2.107197	2.107197
Hg	6.321592	2.107197	6.321592
In	4.214395	0.000000	4.214395
O	6.321592	2.107197	4.214395
O	6.321592	0.000000	6.321592
O	4.214395	2.107197	6.321592
Hg	6.321592	6.321592	2.107197
In	4.214395	4.214395	0.000000
O	6.321592	6.321592	0.000000
O	6.321592	4.214395	2.107197
O	4.214395	6.321592	2.107197
Hg	6.321592	6.321592	6.321592
In	4.214395	4.214395	4.214395
O	6.321592	6.321592	4.214395
O	6.321592	4.214395	6.321592
O	4.214395	6.321592	6.321592
