40

O	0.000000	2.049053	2.049053
O	2.049053	0.000000	2.049053
O	2.049053	2.049053	0.000000
Si	0.000000	0.000000	0.000000
Sn	2.049053	2.049053	2.049053
O	0.000000	2.049053	6.147159
O	2.049053	0.000000	6.147159
O	2.049053	2.049053	4.098106
Si	0.000000	0.000000	4.098106
Sn	2.049053	2.049053	6.147159
O	0.000000	6.147159	2.049053
O	2.049053	4.098106	2.049053
O	2.049053	6.147159	0.000000
Si	0.000000	4.098106	0.000000
Sn	2.049053	6.147159	2.049053
O	0.000000	6.147159	6.147159
O	2.049053	4.098106	6.147159
O	2.049053	6.147159	4.098106
Si	0.000000	4.098106	4.098106
Sn	2.049053	6.147159	6.147159
O	4.098106	2.049053	2.049053
O	6.147159	0.000000	2.049053
O	6.147159	2.049053	0.000000
Si	4.098106	0.000000	0.000000
Sn	6.147159	2.049053	2.049053
O	4.098106	2.049053	6.147159
O	6.147159	0.000000	6.147159
O	6.147159	2.049053	4.098106
Si	4.098106	0.000000	4.098106
Sn	6.147159	2.049053	6.147159
O	4.098106	6.147159	2.049053
O	6.147159	4.098106	2.049053
O	6.147159	6.147159	0.000000
Si	4.098106	4.098106	0.000000
Sn	6.147159	6.147159	2.049053
O	4.098106	6.147159	6.147159
O	6.147159	4.098106	6.147159
O	6.147159	6.147159	4.098106
Si	4.098106	4.098106	4.098106
Sn	6.147159	6.147159	6.147159
