40

F	0.000000	1.970821	1.970821
F	1.970821	0.000000	1.970821
F	1.970821	1.970821	0.000000
O	1.970821	1.970821	1.970821
Ta	0.000000	0.000000	0.000000
F	0.000000	1.970821	5.912464
F	1.970821	0.000000	5.912464
F	1.970821	1.970821	3.941643
O	1.970821	1.970821	5.912464
Ta	0.000000	0.000000	3.941643
F	0.000000	5.912464	1.970821
F	1.970821	3.941643	1.970821
F	1.970821	5.912464	0.000000
O	1.970821	5.912464	1.970821
Ta	0.000000	3.941643	0.000000
F	0.000000	5.912464	5.912464
F	1.970821	3.941643	5.912464
F	1.970821	5.912464	3.941643
O	1.970821	5.912464	5.912464
Ta	0.000000	3.941643	3.941643
F	3.941643	1.970821	1.970821
F	5.912464	0.000000	1.970821
F	5.912464	1.970821	0.000000
O	5.912464	1.970821	1.970821
Ta	3.941643	0.000000	0.000000
F	3.941643	1.970821	5.912464
F	5.912464	0.000000	5.912464
F	5.912464	1.970821	3.941643
O	5.912464	1.970821	5.912464
Ta	3.941643	0.000000	3.941643
F	3.941643	5.912464	1.970821
F	5.912464	3.941643	1.970821
F	5.912464	5.912464	0.000000
O	5.912464	5.912464	1.970821
Ta	3.941643	3.941643	0.000000
F	3.941643	5.912464	5.912464
F	5.912464	3.941643	5.912464
F	5.912464	5.912464	3.941643
O	5.912464	5.912464	5.912464
Ta	3.941643	3.941643	3.941643
