112

O	3.512346	-0.983454	-0.983454
O	-0.984290	0.983454	-3.513153
O	0.984290	-0.983454	-3.513153
O	1.264028	1.264850	-1.264850
O	5.480927	0.983454	-0.983454
O	1.264028	3.231758	-3.231758
O	3.232608	3.231758	-1.264850
O	3.232609	1.264850	-3.231758
Sm	0.000000	0.000000	0.000000
Sm	2.248318	-2.248304	-2.248304
Zn	-1.124159	-1.124152	-3.372455
Zn	3.372477	1.124152	-1.124152
Zn	5.620795	-1.124152	-1.124152
Zn	1.124159	1.124152	-3.372455
O	8.008982	3.513153	-0.983454
O	3.512346	5.480061	-3.513153
O	5.480927	3.513153	-3.513153
O	5.760664	5.761457	-1.264850
O	9.977563	5.480061	-0.983454
O	5.760664	7.728365	-3.231758
O	7.729245	7.728365	-1.264850
O	7.729245	5.761457	-3.231758
Sm	4.496636	4.496607	0.000000
Sm	6.744954	2.248304	-2.248304
Zn	3.372477	3.372455	-3.372455
Zn	7.869113	5.620759	-1.124152
Zn	10.117431	3.372455	-1.124152
Zn	5.620795	5.620759	-3.372455
O	-0.984290	-0.983454	-5.480061
O	-5.480927	0.983454	-8.009761
O	-3.512346	-0.983454	-8.009761
O	-3.232609	1.264850	-5.761457
O	0.984290	0.983454	-5.480061
O	-3.232608	3.231758	-7.728365
O	-1.264028	3.231758	-5.761457
O	-1.264028	1.264850	-7.728365
Sm	-4.496636	0.000000	-4.496607
Sm	-2.248318	-2.248304	-6.744911
Zn	-5.620795	-1.124152	-7.869063
Zn	-1.124159	1.124152	-5.620759
Zn	1.124159	-1.124152	-5.620759
Zn	-3.372477	1.124152	-7.869063
O	3.512346	3.513153	-5.480061
O	-0.984290	5.480061	-8.009761
O	0.984290	3.513153	-8.009761
O	1.264028	5.761457	-5.761457
O	5.480927	5.480061	-5.480061
O	1.264028	7.728365	-7.728365
O	3.232608	7.728365	-5.761457
O	3.232609	5.761457	-7.728365
Sm	0.000000	4.496607	-4.496607
Sm	2.248318	2.248304	-6.744911
Zn	-1.124159	3.372455	-7.869063
Zn	3.372477	5.620759	-5.620759
Zn	5.620795	3.372455	-5.620759
Zn	1.124159	5.620759	-7.869063
O	8.008982	-5.480061	-0.983454
O	3.512346	-3.513153	-3.513153
O	5.480927	-5.480061	-3.513153
O	5.760664	-3.231758	-1.264850
O	9.977563	-3.513153	-0.983454
O	5.760664	-1.264850	-3.231758
O	7.729245	-1.264850	-1.264850
O	7.729245	-3.231758	-3.231758
Sm	4.496636	-4.496607	0.000000
Sm	6.744954	-6.744911	-2.248304
Zn	3.372477	-5.620759	-3.372455
Zn	7.869113	-3.372455	-1.124152
Zn	10.117431	-5.620759	-1.124152
Zn	5.620795	-3.372455	-3.372455
O	12.505618	-0.983454	-0.983454
O	8.008982	0.983454	-3.513153
O	9.977563	-0.983454	-3.513153
O	10.257300	1.264850	-1.264850
O	14.474199	0.983454	-0.983454
O	10.257300	3.231758	-3.231758
O	12.225881	3.231758	-1.264850
O	12.225881	1.264850	-3.231758
Sm	8.993272	0.000000	0.000000
Sm	11.241591	-2.248304	-2.248304
Zn	7.869113	-1.124152	-3.372455
Zn	12.365750	1.124152	-1.124152
Zn	14.614068	-1.124152	-1.124152
Zn	10.117431	1.124152	-3.372455
O	3.512346	-5.480061	-5.480061
O	-0.984290	-3.513153	-8.009761
O	0.984290	-5.480061	-8.009761
O	1.264028	-3.231758	-5.761457
O	5.480927	-3.513153	-5.480061
O	1.264028	-1.264850	-7.728365
O	3.232608	-1.264850	-5.761457
O	3.232609	-3.231758	-7.728365
Sm	0.000000	-4.496607	-4.496607
Sm	2.248318	-6.744911	-6.744911
Zn	-1.124159	-5.620759	-7.869063
Zn	3.372477	-3.372455	-5.620759
Zn	5.620795	-5.620759	-5.620759
Zn	1.124159	-3.372455	-7.869063
O	8.008982	-0.983454	-5.480061
O	3.512346	0.983454	-8.009761
O	5.480927	-0.983454	-8.009761
O	5.760664	1.264850	-5.761457
O	9.977563	0.983454	-5.480061
O	5.760664	3.231758	-7.728365
O	7.729245	3.231758	-5.761457
O	7.729245	1.264850	-7.728365
Sm	4.496636	0.000000	-4.496607
Sm	6.744954	-2.248304	-6.744911
Zn	3.372477	-1.124152	-7.869063
Zn	7.869113	1.124152	-5.620759
Zn	10.117431	-1.124152	-5.620759
Zn	5.620795	1.124152	-7.869063
