40

Be	1.747258	1.747258	1.747258
Mg	0.000000	0.000000	0.000000
O	0.000000	1.747258	1.747258
O	1.747258	0.000000	1.747258
O	1.747258	1.747258	0.000000
Be	1.747258	1.747258	5.241773
Mg	0.000000	0.000000	3.494515
O	0.000000	1.747258	5.241773
O	1.747258	0.000000	5.241773
O	1.747258	1.747258	3.494515
Be	1.747258	5.241773	1.747258
Mg	0.000000	3.494515	0.000000
O	0.000000	5.241773	1.747258
O	1.747258	3.494515	1.747258
O	1.747258	5.241773	0.000000
Be	1.747258	5.241773	5.241773
Mg	0.000000	3.494515	3.494515
O	0.000000	5.241773	5.241773
O	1.747258	3.494515	5.241773
O	1.747258	5.241773	3.494515
Be	5.241773	1.747258	1.747258
Mg	3.494515	0.000000	0.000000
O	3.494515	1.747258	1.747258
O	5.241773	0.000000	1.747258
O	5.241773	1.747258	0.000000
Be	5.241773	1.747258	5.241773
Mg	3.494515	0.000000	3.494515
O	3.494515	1.747258	5.241773
O	5.241773	0.000000	5.241773
O	5.241773	1.747258	3.494515
Be	5.241773	5.241773	1.747258
Mg	3.494515	3.494515	0.000000
O	3.494515	5.241773	1.747258
O	5.241773	3.494515	1.747258
O	5.241773	5.241773	0.000000
Be	5.241773	5.241773	5.241773
Mg	3.494515	3.494515	3.494515
O	3.494515	5.241773	5.241773
O	5.241773	3.494515	5.241773
O	5.241773	5.241773	3.494515
