40

Cr	1.879657	1.879657	1.879657
O	1.879657	1.879657	0.000000
O	1.879657	0.000000	1.879657
O	0.000000	1.879657	1.879657
Pt	0.000000	0.000000	0.000000
Cr	1.879657	1.879657	5.638970
O	1.879657	1.879657	3.759313
O	1.879657	0.000000	5.638970
O	0.000000	1.879657	5.638970
Pt	0.000000	0.000000	3.759313
Cr	1.879657	5.638970	1.879657
O	1.879657	5.638970	0.000000
O	1.879657	3.759313	1.879657
O	0.000000	5.638970	1.879657
Pt	0.000000	3.759313	0.000000
Cr	1.879657	5.638970	5.638970
O	1.879657	5.638970	3.759313
O	1.879657	3.759313	5.638970
O	0.000000	5.638970	5.638970
Pt	0.000000	3.759313	3.759313
Cr	5.638970	1.879657	1.879657
O	5.638970	1.879657	0.000000
O	5.638970	0.000000	1.879657
O	3.759313	1.879657	1.879657
Pt	3.759313	0.000000	0.000000
Cr	5.638970	1.879657	5.638970
O	5.638970	1.879657	3.759313
O	5.638970	0.000000	5.638970
O	3.759313	1.879657	5.638970
Pt	3.759313	0.000000	3.759313
Cr	5.638970	5.638970	1.879657
O	5.638970	5.638970	0.000000
O	5.638970	3.759313	1.879657
O	3.759313	5.638970	1.879657
Pt	3.759313	3.759313	0.000000
Cr	5.638970	5.638970	5.638970
O	5.638970	5.638970	3.759313
O	5.638970	3.759313	5.638970
O	3.759313	5.638970	5.638970
Pt	3.759313	3.759313	3.759313
