112

O	-0.999384	0.999649	-4.303783
O	4.306886	-0.999649	-0.999649
O	0.999384	-0.999649	-4.303783
O	1.653746	1.652067	-1.652067
O	6.305644	0.999649	-0.999649
O	1.653746	3.651364	-3.651364
O	3.652514	3.651364	-1.652067
O	3.652514	1.652067	-3.651364
Pb	0.000000	0.000000	0.000000
Pb	2.653130	-2.651716	-2.651716
Th	-1.326565	-1.325863	-3.977579
Th	6.632835	-1.325863	-1.325863
Th	3.979695	1.325863	-1.325863
Th	1.326565	1.325863	-3.977579
O	4.306881	6.303082	-4.303783
O	9.613151	4.303784	-0.999649
O	6.305649	4.303784	-4.303783
O	6.960011	6.955500	-1.652067
O	11.611909	6.303082	-0.999649
O	6.960011	8.954797	-3.651364
O	8.958779	8.954797	-1.652067
O	8.958779	6.955500	-3.651364
Pb	5.306265	5.303433	0.000000
Pb	7.959395	2.651717	-2.651716
Th	3.979700	3.977570	-3.977579
Th	11.939100	3.977570	-1.325863
Th	9.285960	6.629296	-1.325863
Th	6.632830	6.629296	-3.977579
O	-6.305649	0.999649	-9.607216
O	-0.999379	-0.999649	-6.303082
O	-4.306881	-0.999649	-9.607216
O	-3.652519	1.652067	-6.955500
O	0.999379	0.999649	-6.303082
O	-3.652519	3.651364	-8.954797
O	-1.653751	3.651364	-6.955500
O	-1.653751	1.652067	-8.954797
Pb	-5.306265	0.000000	-5.303433
Pb	-2.653135	-2.651716	-7.955149
Th	-6.632830	-1.325863	-9.281012
Th	1.326570	-1.325863	-6.629296
Th	-1.326570	1.325863	-6.629296
Th	-3.979700	1.325863	-9.281012
O	-0.999384	6.303082	-9.607216
O	4.306886	4.303784	-6.303082
O	0.999384	4.303784	-9.607216
O	1.653746	6.955500	-6.955500
O	6.305644	6.303082	-6.303082
O	1.653746	8.954797	-8.954797
O	3.652514	8.954797	-6.955500
O	3.652514	6.955500	-8.954797
Pb	0.000000	5.303433	-5.303433
Pb	2.653130	2.651717	-7.955149
Th	-1.326565	3.977570	-9.281012
Th	6.632835	3.977570	-6.629296
Th	3.979695	6.629296	-6.629296
Th	1.326565	6.629296	-9.281012
O	4.306881	-4.303784	-4.303783
O	9.613151	-6.303082	-0.999649
O	6.305649	-6.303082	-4.303783
O	6.960011	-3.651366	-1.652067
O	11.611909	-4.303784	-0.999649
O	6.960011	-1.652069	-3.651364
O	8.958779	-1.652069	-1.652067
O	8.958779	-3.651366	-3.651364
Pb	5.306265	-5.303433	0.000000
Pb	7.959395	-7.955149	-2.651716
Th	3.979700	-6.629296	-3.977579
Th	11.939100	-6.629296	-1.325863
Th	9.285960	-3.977570	-1.325863
Th	6.632830	-3.977570	-3.977579
O	9.613146	0.999649	-4.303783
O	14.919416	-0.999649	-0.999649
O	11.611914	-0.999649	-4.303783
O	12.266276	1.652067	-1.652067
O	16.918174	0.999649	-0.999649
O	12.266276	3.651364	-3.651364
O	14.265044	3.651364	-1.652067
O	14.265044	1.652067	-3.651364
Pb	10.612530	0.000000	0.000000
Pb	13.265660	-2.651716	-2.651716
Th	9.285965	-1.325863	-3.977579
Th	17.245365	-1.325863	-1.325863
Th	14.592225	1.325863	-1.325863
Th	11.939095	1.325863	-3.977579
O	-0.999384	-4.303784	-9.607216
O	4.306886	-6.303082	-6.303082
O	0.999384	-6.303082	-9.607216
O	1.653746	-3.651366	-6.955500
O	6.305644	-4.303784	-6.303082
O	1.653746	-1.652069	-8.954797
O	3.652514	-1.652069	-6.955500
O	3.652514	-3.651366	-8.954797
Pb	0.000000	-5.303433	-5.303433
Pb	2.653130	-7.955149	-7.955149
Th	-1.326565	-6.629296	-9.281012
Th	6.632835	-6.629296	-6.629296
Th	3.979695	-3.977570	-6.629296
Th	1.326565	-3.977570	-9.281012
O	4.306881	0.999649	-9.607216
O	9.613151	-0.999649	-6.303082
O	6.305649	-0.999649	-9.607216
O	6.960011	1.652067	-6.955500
O	11.611909	0.999649	-6.303082
O	6.960011	3.651364	-8.954797
O	8.958779	3.651364	-6.955500
O	8.958779	1.652067	-8.954797
Pb	5.306265	0.000000	-5.303433
Pb	7.959395	-2.651716	-7.955149
Th	3.979700	-1.325863	-9.281012
Th	11.939100	-1.325863	-6.629296
Th	9.285960	1.325863	-6.629296
Th	6.632830	1.325863	-9.281012
