40

Co	0.000000	0.000000	0.000000
O	0.000000	1.953103	1.953103
O	1.953103	0.000000	1.953103
O	1.953103	1.953103	0.000000
Os	1.953103	1.953103	1.953103
Co	0.000000	0.000000	3.906206
O	0.000000	1.953103	5.859309
O	1.953103	0.000000	5.859309
O	1.953103	1.953103	3.906206
Os	1.953103	1.953103	5.859309
Co	0.000000	3.906206	0.000000
O	0.000000	5.859309	1.953103
O	1.953103	3.906206	1.953103
O	1.953103	5.859309	0.000000
Os	1.953103	5.859309	1.953103
Co	0.000000	3.906206	3.906206
O	0.000000	5.859309	5.859309
O	1.953103	3.906206	5.859309
O	1.953103	5.859309	3.906206
Os	1.953103	5.859309	5.859309
Co	3.906206	0.000000	0.000000
O	3.906206	1.953103	1.953103
O	5.859309	0.000000	1.953103
O	5.859309	1.953103	0.000000
Os	5.859309	1.953103	1.953103
Co	3.906206	0.000000	3.906206
O	3.906206	1.953103	5.859309
O	5.859309	0.000000	5.859309
O	5.859309	1.953103	3.906206
Os	5.859309	1.953103	5.859309
Co	3.906206	3.906206	0.000000
O	3.906206	5.859309	1.953103
O	5.859309	3.906206	1.953103
O	5.859309	5.859309	0.000000
Os	5.859309	5.859309	1.953103
Co	3.906206	3.906206	3.906206
O	3.906206	5.859309	5.859309
O	5.859309	3.906206	5.859309
O	5.859309	5.859309	3.906206
Os	5.859309	5.859309	5.859309
