40

Ag	0.000000	0.000000	0.000000
N	1.831826	1.831826	1.831826
O	0.000000	1.831826	1.831826
O	1.831826	0.000000	1.831826
O	1.831826	1.831826	0.000000
Ag	0.000000	0.000000	3.663651
N	1.831826	1.831826	5.495477
O	0.000000	1.831826	5.495477
O	1.831826	0.000000	5.495477
O	1.831826	1.831826	3.663651
Ag	0.000000	3.663651	0.000000
N	1.831826	5.495477	1.831826
O	0.000000	5.495477	1.831826
O	1.831826	3.663651	1.831826
O	1.831826	5.495477	0.000000
Ag	0.000000	3.663651	3.663651
N	1.831826	5.495477	5.495477
O	0.000000	5.495477	5.495477
O	1.831826	3.663651	5.495477
O	1.831826	5.495477	3.663651
Ag	3.663651	0.000000	0.000000
N	5.495477	1.831826	1.831826
O	3.663651	1.831826	1.831826
O	5.495477	0.000000	1.831826
O	5.495477	1.831826	0.000000
Ag	3.663651	0.000000	3.663651
N	5.495477	1.831826	5.495477
O	3.663651	1.831826	5.495477
O	5.495477	0.000000	5.495477
O	5.495477	1.831826	3.663651
Ag	3.663651	3.663651	0.000000
N	5.495477	5.495477	1.831826
O	3.663651	5.495477	1.831826
O	5.495477	3.663651	1.831826
O	5.495477	5.495477	0.000000
Ag	3.663651	3.663651	3.663651
N	5.495477	5.495477	5.495477
O	3.663651	5.495477	5.495477
O	5.495477	3.663651	5.495477
O	5.495477	5.495477	3.663651
