40

C	0.000000	0.000000	0.000000
O	0.000000	2.042774	2.042774
O	2.042774	0.000000	2.042774
O	2.042774	2.042774	0.000000
Sn	2.042774	2.042774	2.042774
C	0.000000	0.000000	4.085549
O	0.000000	2.042774	6.128323
O	2.042774	0.000000	6.128323
O	2.042774	2.042774	4.085549
Sn	2.042774	2.042774	6.128323
C	0.000000	4.085549	0.000000
O	0.000000	6.128323	2.042774
O	2.042774	4.085549	2.042774
O	2.042774	6.128323	0.000000
Sn	2.042774	6.128323	2.042774
C	0.000000	4.085549	4.085549
O	0.000000	6.128323	6.128323
O	2.042774	4.085549	6.128323
O	2.042774	6.128323	4.085549
Sn	2.042774	6.128323	6.128323
C	4.085549	0.000000	0.000000
O	4.085549	2.042774	2.042774
O	6.128323	0.000000	2.042774
O	6.128323	2.042774	0.000000
Sn	6.128323	2.042774	2.042774
C	4.085549	0.000000	4.085549
O	4.085549	2.042774	6.128323
O	6.128323	0.000000	6.128323
O	6.128323	2.042774	4.085549
Sn	6.128323	2.042774	6.128323
C	4.085549	4.085549	0.000000
O	4.085549	6.128323	2.042774
O	6.128323	4.085549	2.042774
O	6.128323	6.128323	0.000000
Sn	6.128323	6.128323	2.042774
C	4.085549	4.085549	4.085549
O	4.085549	6.128323	6.128323
O	6.128323	4.085549	6.128323
O	6.128323	6.128323	4.085549
Sn	6.128323	6.128323	6.128323
