40

Cr	0.000000	0.000000	0.000000
K	2.240026	2.240026	2.240026
O	2.240026	2.240026	0.000000
O	2.240026	0.000000	2.240026
O	0.000000	2.240026	2.240026
Cr	0.000000	0.000000	4.480038
K	2.240026	2.240026	6.720065
O	2.240026	2.240026	4.480038
O	2.240026	0.000000	6.720065
O	0.000000	2.240026	6.720065
Cr	0.000000	4.480038	0.000000
K	2.240026	6.720065	2.240026
O	2.240026	6.720065	0.000000
O	2.240026	4.480038	2.240026
O	0.000000	6.720065	2.240026
Cr	0.000000	4.480038	4.480038
K	2.240026	6.720065	6.720065
O	2.240026	6.720065	4.480038
O	2.240026	4.480038	6.720065
O	0.000000	6.720065	6.720065
Cr	4.480038	0.000000	0.000000
K	6.720065	2.240026	2.240026
O	6.720065	2.240026	0.000000
O	6.720065	0.000000	2.240026
O	4.480038	2.240026	2.240026
Cr	4.480038	0.000000	4.480038
K	6.720065	2.240026	6.720065
O	6.720065	2.240026	4.480038
O	6.720065	0.000000	6.720065
O	4.480038	2.240026	6.720065
Cr	4.480038	4.480038	0.000000
K	6.720065	6.720065	2.240026
O	6.720065	6.720065	0.000000
O	6.720065	4.480038	2.240026
O	4.480038	6.720065	2.240026
Cr	4.480038	4.480038	4.480038
K	6.720065	6.720065	6.720065
O	6.720065	6.720065	4.480038
O	6.720065	4.480038	6.720065
O	4.480038	6.720065	6.720065
