40

B	1.679061	1.679061	1.679061
O	0.000000	1.679061	1.679061
O	1.679061	0.000000	1.679061
O	1.679061	1.679061	0.000000
V	0.000000	0.000000	0.000000
B	1.679061	1.679061	5.037182
O	0.000000	1.679061	5.037182
O	1.679061	0.000000	5.037182
O	1.679061	1.679061	3.358121
V	0.000000	0.000000	3.358121
B	1.679061	5.037182	1.679061
O	0.000000	5.037182	1.679061
O	1.679061	3.358121	1.679061
O	1.679061	5.037182	0.000000
V	0.000000	3.358121	0.000000
B	1.679061	5.037182	5.037182
O	0.000000	5.037182	5.037182
O	1.679061	3.358121	5.037182
O	1.679061	5.037182	3.358121
V	0.000000	3.358121	3.358121
B	5.037182	1.679061	1.679061
O	3.358121	1.679061	1.679061
O	5.037182	0.000000	1.679061
O	5.037182	1.679061	0.000000
V	3.358121	0.000000	0.000000
B	5.037182	1.679061	5.037182
O	3.358121	1.679061	5.037182
O	5.037182	0.000000	5.037182
O	5.037182	1.679061	3.358121
V	3.358121	0.000000	3.358121
B	5.037182	5.037182	1.679061
O	3.358121	5.037182	1.679061
O	5.037182	3.358121	1.679061
O	5.037182	5.037182	0.000000
V	3.358121	3.358121	0.000000
B	5.037182	5.037182	5.037182
O	3.358121	5.037182	5.037182
O	5.037182	3.358121	5.037182
O	5.037182	5.037182	3.358121
V	3.358121	3.358121	3.358121
