40

F	0.000000	2.497361	2.497361
F	2.497361	0.000000	2.497361
F	2.497361	2.497361	0.000000
K	2.497361	2.497361	2.497361
O	0.000000	0.000000	0.000000
F	0.000000	2.497361	7.492083
F	2.497361	0.000000	7.492083
F	2.497361	2.497361	4.994722
K	2.497361	2.497361	7.492083
O	0.000000	0.000000	4.994722
F	0.000000	7.492083	2.497361
F	2.497361	4.994722	2.497361
F	2.497361	7.492083	0.000000
K	2.497361	7.492083	2.497361
O	0.000000	4.994722	0.000000
F	0.000000	7.492083	7.492083
F	2.497361	4.994722	7.492083
F	2.497361	7.492083	4.994722
K	2.497361	7.492083	7.492083
O	0.000000	4.994722	4.994722
F	4.994722	2.497361	2.497361
F	7.492083	0.000000	2.497361
F	7.492083	2.497361	0.000000
K	7.492083	2.497361	2.497361
O	4.994722	0.000000	0.000000
F	4.994722	2.497361	7.492083
F	7.492083	0.000000	7.492083
F	7.492083	2.497361	4.994722
K	7.492083	2.497361	7.492083
O	4.994722	0.000000	4.994722
F	4.994722	7.492083	2.497361
F	7.492083	4.994722	2.497361
F	7.492083	7.492083	0.000000
K	7.492083	7.492083	2.497361
O	4.994722	4.994722	0.000000
F	4.994722	7.492083	7.492083
F	7.492083	4.994722	7.492083
F	7.492083	7.492083	4.994722
K	7.492083	7.492083	7.492083
O	4.994722	4.994722	4.994722
