112

Dy	0.000000	0.000000	0.000000
Dy	2.461801	-2.462061	-2.462061
O	3.697476	-1.225503	-1.225503
O	-1.226125	1.225503	-3.698618
O	1.226125	-1.225503	-3.698618
O	1.235675	1.236558	-1.236558
O	6.149726	1.225503	-1.225503
O	1.235675	3.687564	-3.687564
O	3.687926	3.687564	-1.236558
O	3.687926	1.236558	-3.687564
Pa	-1.230900	-1.231030	-3.693091
Pa	3.692701	1.231030	-1.231030
Pa	6.154501	-1.231030	-1.231030
Pa	1.230900	1.231030	-3.693091
Dy	4.923601	4.924121	0.000000
Dy	7.385402	2.462061	-2.462061
O	8.621077	3.698618	-1.225503
O	3.697476	6.149624	-3.698618
O	6.149726	3.698618	-3.698618
O	6.159276	6.160679	-1.236558
O	11.073327	6.149624	-1.225503
O	6.159276	8.611685	-3.687564
O	8.611527	8.611685	-1.236558
O	8.611527	6.160679	-3.687564
Pa	3.692701	3.693091	-3.693091
Pa	8.616302	6.155152	-1.231030
Pa	11.078102	3.693091	-1.231030
Pa	6.154501	6.155152	-3.693091
Dy	-4.923601	0.000000	-4.924121
Dy	-2.461801	-2.462061	-7.386182
O	-1.226125	-1.225503	-6.149624
O	-6.149726	1.225503	-8.622740
O	-3.697476	-1.225503	-8.622740
O	-3.687926	1.236558	-6.160679
O	1.226125	1.225503	-6.149624
O	-3.687926	3.687564	-8.611685
O	-1.235675	3.687564	-6.160679
O	-1.235675	1.236558	-8.611685
Pa	-6.154501	-1.231030	-8.617212
Pa	-1.230900	1.231030	-6.155152
Pa	1.230900	-1.231030	-6.155152
Pa	-3.692701	1.231030	-8.617212
Dy	0.000000	4.924121	-4.924121
Dy	2.461801	2.462061	-7.386182
O	3.697476	3.698618	-6.149624
O	-1.226125	6.149624	-8.622740
O	1.226125	3.698618	-8.622740
O	1.235675	6.160679	-6.160679
O	6.149726	6.149624	-6.149624
O	1.235675	8.611685	-8.611685
O	3.687926	8.611685	-6.160679
O	3.687926	6.160679	-8.611685
Pa	-1.230900	3.693091	-8.617212
Pa	3.692701	6.155152	-6.155152
Pa	6.154501	3.693091	-6.155152
Pa	1.230900	6.155152	-8.617212
Dy	4.923601	-4.924121	0.000000
Dy	7.385402	-7.386182	-2.462061
O	8.621077	-6.149624	-1.225503
O	3.697476	-3.698618	-3.698618
O	6.149726	-6.149624	-3.698618
O	6.159276	-3.687564	-1.236558
O	11.073327	-3.698618	-1.225503
O	6.159276	-1.236558	-3.687564
O	8.611527	-1.236558	-1.236558
O	8.611527	-3.687564	-3.687564
Pa	3.692701	-6.155152	-3.693091
Pa	8.616302	-3.693091	-1.231030
Pa	11.078102	-6.155152	-1.231030
Pa	6.154501	-3.693091	-3.693091
Dy	9.847202	0.000000	0.000000
Dy	12.309003	-2.462061	-2.462061
O	13.544678	-1.225503	-1.225503
O	8.621077	1.225503	-3.698618
O	11.073327	-1.225503	-3.698618
O	11.082877	1.236558	-1.236558
O	15.996929	1.225503	-1.225503
O	11.082877	3.687564	-3.687564
O	13.535128	3.687564	-1.236558
O	13.535128	1.236558	-3.687564
Pa	8.616302	-1.231030	-3.693091
Pa	13.539903	1.231030	-1.231030
Pa	16.001703	-1.231030	-1.231030
Pa	11.078102	1.231030	-3.693091
Dy	0.000000	-4.924121	-4.924121
Dy	2.461801	-7.386182	-7.386182
O	3.697476	-6.149624	-6.149624
O	-1.226125	-3.698618	-8.622740
O	1.226125	-6.149624	-8.622740
O	1.235675	-3.687564	-6.160679
O	6.149726	-3.698618	-6.149624
O	1.235675	-1.236558	-8.611685
O	3.687926	-1.236558	-6.160679
O	3.687926	-3.687564	-8.611685
Pa	-1.230900	-6.155152	-8.617212
Pa	3.692701	-3.693091	-6.155152
Pa	6.154501	-6.155152	-6.155152
Pa	1.230900	-3.693091	-8.617212
Dy	4.923601	0.000000	-4.924121
Dy	7.385402	-2.462061	-7.386182
O	8.621077	-1.225503	-6.149624
O	3.697476	1.225503	-8.622740
O	6.149726	-1.225503	-8.622740
O	6.159276	1.236558	-6.160679
O	11.073327	1.225503	-6.149624
O	6.159276	3.687564	-8.611685
O	8.611527	3.687564	-6.160679
O	8.611527	1.236558	-8.611685
Pa	3.692701	-1.231030	-8.617212
Pa	8.616302	1.231030	-6.155152
Pa	11.078102	-1.231030	-6.155152
Pa	6.154501	1.231030	-8.617212
