40

B	1.848375	1.848375	1.848375
O	0.000000	1.848375	1.848375
O	1.848375	0.000000	1.848375
O	1.848375	1.848375	0.000000
Rb	0.000000	0.000000	0.000000
B	1.848375	1.848375	5.545124
O	0.000000	1.848375	5.545124
O	1.848375	0.000000	5.545124
O	1.848375	1.848375	3.696750
Rb	0.000000	0.000000	3.696750
B	1.848375	5.545124	1.848375
O	0.000000	5.545124	1.848375
O	1.848375	3.696750	1.848375
O	1.848375	5.545124	0.000000
Rb	0.000000	3.696750	0.000000
B	1.848375	5.545124	5.545124
O	0.000000	5.545124	5.545124
O	1.848375	3.696750	5.545124
O	1.848375	5.545124	3.696750
Rb	0.000000	3.696750	3.696750
B	5.545124	1.848375	1.848375
O	3.696750	1.848375	1.848375
O	5.545124	0.000000	1.848375
O	5.545124	1.848375	0.000000
Rb	3.696750	0.000000	0.000000
B	5.545124	1.848375	5.545124
O	3.696750	1.848375	5.545124
O	5.545124	0.000000	5.545124
O	5.545124	1.848375	3.696750
Rb	3.696750	0.000000	3.696750
B	5.545124	5.545124	1.848375
O	3.696750	5.545124	1.848375
O	5.545124	3.696750	1.848375
O	5.545124	5.545124	0.000000
Rb	3.696750	3.696750	0.000000
B	5.545124	5.545124	5.545124
O	3.696750	5.545124	5.545124
O	5.545124	3.696750	5.545124
O	5.545124	5.545124	3.696750
Rb	3.696750	3.696750	3.696750
