112

Cd	0.000000	0.000000	0.000000
Cd	2.417255	-2.417953	-2.417953
Gd	-1.208628	-1.208977	-3.626930
Gd	3.625883	1.208977	-1.208977
Gd	6.043138	-1.208977	-1.208977
Gd	1.208628	1.208977	-3.626930
O	3.737826	-1.096482	-1.096482
O	-1.096684	1.096482	-3.739424
O	1.096684	-1.096482	-3.739424
O	1.320571	1.321471	-1.321471
O	5.931194	1.096482	-1.096482
O	1.320571	3.514435	-3.514435
O	3.513939	3.514435	-1.321471
O	3.513939	1.321471	-3.514435
Cd	4.834510	4.835906	0.000000
Cd	7.251765	2.417953	-2.417953
Gd	3.625883	3.626930	-3.626930
Gd	8.460393	6.044883	-1.208977
Gd	10.877648	3.626930	-1.208977
Gd	6.043138	6.044883	-3.626930
O	8.572336	3.739424	-1.096482
O	3.737826	5.932388	-3.739424
O	5.931194	3.739424	-3.739424
O	6.155081	6.157377	-1.321471
O	10.765704	5.932388	-1.096482
O	6.155081	8.350341	-3.514435
O	8.348449	8.350341	-1.321471
O	8.348449	6.157377	-3.514435
Cd	-4.834510	0.000000	-4.835906
Cd	-2.417255	-2.417953	-7.253859
Gd	-6.043138	-1.208977	-8.462836
Gd	-1.208628	1.208977	-6.044883
Gd	1.208628	-1.208977	-6.044883
Gd	-3.625883	1.208977	-8.462836
O	-1.096684	-1.096482	-5.932388
O	-5.931194	1.096482	-8.575330
O	-3.737826	-1.096482	-8.575330
O	-3.513939	1.321471	-6.157377
O	1.096684	1.096482	-5.932388
O	-3.513939	3.514435	-8.350341
O	-1.320571	3.514435	-6.157377
O	-1.320571	1.321471	-8.350341
Cd	0.000000	4.835906	-4.835906
Cd	2.417255	2.417953	-7.253859
Gd	-1.208628	3.626930	-8.462836
Gd	3.625883	6.044883	-6.044883
Gd	6.043138	3.626930	-6.044883
Gd	1.208628	6.044883	-8.462836
O	3.737826	3.739424	-5.932388
O	-1.096684	5.932388	-8.575330
O	1.096684	3.739424	-8.575330
O	1.320571	6.157377	-6.157377
O	5.931194	5.932388	-5.932388
O	1.320571	8.350341	-8.350341
O	3.513939	8.350341	-6.157377
O	3.513939	6.157377	-8.350341
Cd	4.834510	-4.835906	0.000000
Cd	7.251765	-7.253859	-2.417953
Gd	3.625883	-6.044883	-3.626930
Gd	8.460393	-3.626930	-1.208977
Gd	10.877648	-6.044883	-1.208977
Gd	6.043138	-3.626930	-3.626930
O	8.572336	-5.932388	-1.096482
O	3.737826	-3.739424	-3.739424
O	5.931194	-5.932388	-3.739424
O	6.155081	-3.514435	-1.321471
O	10.765704	-3.739424	-1.096482
O	6.155081	-1.321471	-3.514435
O	8.348449	-1.321471	-1.321471
O	8.348449	-3.514435	-3.514435
Cd	9.669020	0.000000	0.000000
Cd	12.086275	-2.417953	-2.417953
Gd	8.460393	-1.208977	-3.626930
Gd	13.294903	1.208977	-1.208977
Gd	15.712158	-1.208977	-1.208977
Gd	10.877648	1.208977	-3.626930
O	13.406846	-1.096482	-1.096482
O	8.572336	1.096482	-3.739424
O	10.765704	-1.096482	-3.739424
O	10.989591	1.321471	-1.321471
O	15.600214	1.096482	-1.096482
O	10.989591	3.514435	-3.514435
O	13.182959	3.514435	-1.321471
O	13.182959	1.321471	-3.514435
Cd	0.000000	-4.835906	-4.835906
Cd	2.417255	-7.253859	-7.253859
Gd	-1.208628	-6.044883	-8.462836
Gd	3.625883	-3.626930	-6.044883
Gd	6.043138	-6.044883	-6.044883
Gd	1.208628	-3.626930	-8.462836
O	3.737826	-5.932388	-5.932388
O	-1.096684	-3.739424	-8.575330
O	1.096684	-5.932388	-8.575330
O	1.320571	-3.514435	-6.157377
O	5.931194	-3.739424	-5.932388
O	1.320571	-1.321471	-8.350341
O	3.513939	-1.321471	-6.157377
O	3.513939	-3.514435	-8.350341
Cd	4.834510	0.000000	-4.835906
Cd	7.251765	-2.417953	-7.253859
Gd	3.625883	-1.208977	-8.462836
Gd	8.460393	1.208977	-6.044883
Gd	10.877648	-1.208977	-6.044883
Gd	6.043138	1.208977	-8.462836
O	8.572336	-1.096482	-5.932388
O	3.737826	1.096482	-8.575330
O	5.931194	-1.096482	-8.575330
O	6.155081	1.321471	-6.157377
O	10.765704	1.096482	-5.932388
O	6.155081	3.514435	-8.350341
O	8.348449	3.514435	-6.157377
O	8.348449	1.321471	-8.350341
