112

Mn	0.000000	0.000000	0.000000
Mn	2.361654	-2.362173	-2.362173
O	3.612960	-1.110114	-1.110114
O	-1.110349	1.110114	-3.614232
O	1.110349	-1.110114	-3.614232
O	1.251305	1.252059	-1.252059
O	5.833658	1.110114	-1.110114
O	1.251305	3.472287	-3.472287
O	3.472003	3.472287	-1.252059
O	3.472003	1.252059	-3.472287
Tb	-1.180827	-1.181086	-3.543259
Tb	3.542481	1.181086	-1.181086
Tb	5.904136	-1.181086	-1.181086
Tb	1.180827	1.181086	-3.543259
Mn	4.723309	4.724346	0.000000
Mn	7.084963	2.362173	-2.362173
O	8.336268	3.614232	-1.110114
O	3.612960	5.834460	-3.614232
O	5.833658	3.614232	-3.614232
O	5.974614	5.976405	-1.252059
O	10.556966	5.834460	-1.110114
O	5.974614	8.196633	-3.472287
O	8.195312	8.196633	-1.252059
O	8.195312	5.976405	-3.472287
Tb	3.542481	3.543259	-3.543259
Tb	8.265790	5.905432	-1.181086
Tb	10.627444	3.543259	-1.181086
Tb	5.904136	5.905432	-3.543259
Mn	-4.723309	0.000000	-4.724346
Mn	-2.361654	-2.362173	-7.086519
O	-1.110349	-1.110114	-5.834460
O	-5.833658	1.110114	-8.338577
O	-3.612960	-1.110114	-8.338577
O	-3.472003	1.252059	-5.976405
O	1.110349	1.110114	-5.834460
O	-3.472003	3.472287	-8.196633
O	-1.251305	3.472287	-5.976405
O	-1.251305	1.252059	-8.196633
Tb	-5.904136	-1.181086	-8.267605
Tb	-1.180827	1.181086	-5.905432
Tb	1.180827	-1.181086	-5.905432
Tb	-3.542481	1.181086	-8.267605
Mn	0.000000	4.724346	-4.724346
Mn	2.361654	2.362173	-7.086519
O	3.612960	3.614232	-5.834460
O	-1.110349	5.834460	-8.338577
O	1.110349	3.614232	-8.338577
O	1.251305	5.976405	-5.976405
O	5.833658	5.834460	-5.834460
O	1.251305	8.196633	-8.196633
O	3.472003	8.196633	-5.976405
O	3.472003	5.976405	-8.196633
Tb	-1.180827	3.543259	-8.267605
Tb	3.542481	5.905432	-5.905432
Tb	5.904136	3.543259	-5.905432
Tb	1.180827	5.905432	-8.267605
Mn	4.723309	-4.724346	0.000000
Mn	7.084963	-7.086519	-2.362173
O	8.336268	-5.834460	-1.110114
O	3.612960	-3.614232	-3.614232
O	5.833658	-5.834460	-3.614232
O	5.974614	-3.472287	-1.252059
O	10.556966	-3.614232	-1.110114
O	5.974614	-1.252059	-3.472287
O	8.195312	-1.252059	-1.252059
O	8.195312	-3.472287	-3.472287
Tb	3.542481	-5.905432	-3.543259
Tb	8.265790	-3.543259	-1.181086
Tb	10.627444	-5.905432	-1.181086
Tb	5.904136	-3.543259	-3.543259
Mn	9.446617	0.000000	0.000000
Mn	11.808271	-2.362173	-2.362173
O	13.059577	-1.110114	-1.110114
O	8.336268	1.110114	-3.614232
O	10.556966	-1.110114	-3.614232
O	10.697922	1.252059	-1.252059
O	15.280275	1.110114	-1.110114
O	10.697922	3.472287	-3.472287
O	12.918620	3.472287	-1.252059
O	12.918620	1.252059	-3.472287
Tb	8.265790	-1.181086	-3.543259
Tb	12.989099	1.181086	-1.181086
Tb	15.350753	-1.181086	-1.181086
Tb	10.627444	1.181086	-3.543259
Mn	0.000000	-4.724346	-4.724346
Mn	2.361654	-7.086519	-7.086519
O	3.612960	-5.834460	-5.834460
O	-1.110349	-3.614232	-8.338577
O	1.110349	-5.834460	-8.338577
O	1.251305	-3.472287	-5.976405
O	5.833658	-3.614232	-5.834460
O	1.251305	-1.252059	-8.196633
O	3.472003	-1.252059	-5.976405
O	3.472003	-3.472287	-8.196633
Tb	-1.180827	-5.905432	-8.267605
Tb	3.542481	-3.543259	-5.905432
Tb	5.904136	-5.905432	-5.905432
Tb	1.180827	-3.543259	-8.267605
Mn	4.723309	0.000000	-4.724346
Mn	7.084963	-2.362173	-7.086519
O	8.336268	-1.110114	-5.834460
O	3.612960	1.110114	-8.338577
O	5.833658	-1.110114	-8.338577
O	5.974614	1.252059	-5.976405
O	10.556966	1.110114	-5.834460
O	5.974614	3.472287	-8.196633
O	8.195312	3.472287	-5.976405
O	8.195312	1.252059	-8.196633
Tb	3.542481	-1.181086	-8.267605
Tb	8.265790	1.181086	-5.905432
Tb	10.627444	-1.181086	-5.905432
Tb	5.904136	1.181086	-8.267605
