40

Fe	1.884174	1.884174	1.884174
O	1.884174	1.884174	0.000000
O	0.000000	1.884174	1.884174
O	1.884174	0.000000	1.884174
Sr	-0.015000	0.000000	0.000000
Fe	1.884174	1.884174	5.652521
O	1.884174	1.884174	3.768347
O	0.000000	1.884174	5.652521
O	1.884174	0.000000	5.652521
Sr	-0.015000	0.000000	3.768347
Fe	1.884174	5.652521	1.884174
O	1.884174	5.652521	0.000000
O	0.000000	5.652521	1.884174
O	1.884174	3.768347	1.884174
Sr	-0.015000	3.768347	0.000000
Fe	1.884174	5.652521	5.652521
O	1.884174	5.652521	3.768347
O	0.000000	5.652521	5.652521
O	1.884174	3.768347	5.652521
Sr	-0.015000	3.768347	3.768347
Fe	5.652521	1.884174	1.884174
O	5.652521	1.884174	0.000000
O	3.768347	1.884174	1.884174
O	5.652521	0.000000	1.884174
Sr	3.753347	0.000000	0.000000
Fe	5.652521	1.884174	5.652521
O	5.652521	1.884174	3.768347
O	3.768347	1.884174	5.652521
O	5.652521	0.000000	5.652521
Sr	3.753347	0.000000	3.768347
Fe	5.652521	5.652521	1.884174
O	5.652521	5.652521	0.000000
O	3.768347	5.652521	1.884174
O	5.652521	3.768347	1.884174
Sr	3.753347	3.768347	0.000000
Fe	5.652521	5.652521	5.652521
O	5.652521	5.652521	3.768347
O	3.768347	5.652521	5.652521
O	5.652521	3.768347	5.652521
Sr	3.753347	3.768347	3.768347
