112

Ba	0.000000	0.000000	0.000000
Ba	2.592439	-2.593042	-2.593042
O	4.072982	-1.111549	-1.111549
O	-1.111895	1.111549	-4.074536
O	1.111895	-1.111549	-4.074536
O	1.480543	1.481493	-1.481493
O	6.296772	1.111549	-1.111549
O	1.480543	3.704591	-3.704591
O	3.704334	3.704591	-1.481493
O	3.704334	1.481493	-3.704591
Pr	-1.296219	-1.296521	-3.889563
Pr	6.481096	-1.296521	-1.296521
Pr	3.888658	1.296521	-1.296521
Pr	1.296219	1.296521	-3.889563
Ba	5.184879	5.186084	0.000000
Ba	7.777317	2.593042	-2.593042
O	9.257861	4.074536	-1.111549
O	4.072984	6.297633	-4.074536
O	6.296774	4.074536	-4.074536
O	6.665422	6.667578	-1.481493
O	11.481651	6.297633	-1.111549
O	6.665422	8.890676	-3.704591
O	8.889212	8.890676	-1.481493
O	8.889212	6.667578	-3.704591
Pr	3.888659	3.889563	-3.889563
Pr	11.665975	3.889563	-1.296521
Pr	9.073537	6.482606	-1.296521
Pr	6.481098	6.482606	-3.889563
Ba	-5.184879	0.000000	-5.186084
Ba	-2.592440	-2.593042	-7.779127
O	-1.111897	-1.111549	-6.297633
O	-6.296774	1.111549	-9.260620
O	-4.072984	-1.111549	-9.260620
O	-3.704335	1.481493	-6.667578
O	1.111894	1.111549	-6.297633
O	-3.704335	3.704591	-8.890676
O	-1.480545	3.704591	-6.667578
O	-1.480545	1.481493	-8.890676
Pr	-6.481098	-1.296521	-9.075648
Pr	1.296218	-1.296521	-6.482606
Pr	-1.296221	1.296521	-6.482606
Pr	-3.888659	1.296521	-9.075648
Ba	0.000000	5.186084	-5.186084
Ba	2.592439	2.593042	-7.779127
O	4.072982	4.074536	-6.297633
O	-1.111895	6.297633	-9.260620
O	1.111895	4.074536	-9.260620
O	1.480543	6.667578	-6.667578
O	6.296772	6.297633	-6.297633
O	1.480543	8.890676	-8.890676
O	3.704334	8.890676	-6.667578
O	3.704334	6.667578	-8.890676
Pr	-1.296219	3.889563	-9.075648
Pr	6.481096	3.889563	-6.482606
Pr	3.888658	6.482606	-6.482606
Pr	1.296219	6.482606	-9.075648
Ba	5.184879	-5.186084	0.000000
Ba	7.777317	-7.779127	-2.593042
O	9.257861	-6.297633	-1.111549
O	4.072984	-4.074536	-4.074536
O	6.296774	-6.297633	-4.074536
O	6.665422	-3.704591	-1.481493
O	11.481651	-4.074536	-1.111549
O	6.665422	-1.481493	-3.704591
O	8.889212	-1.481493	-1.481493
O	8.889212	-3.704591	-3.704591
Pr	3.888659	-6.482606	-3.889563
Pr	11.665975	-6.482606	-1.296521
Pr	9.073537	-3.889563	-1.296521
Pr	6.481098	-3.889563	-3.889563
Ba	10.369757	0.000000	0.000000
Ba	12.962196	-2.593042	-2.593042
O	14.442739	-1.111549	-1.111549
O	9.257862	1.111549	-4.074536
O	11.481653	-1.111549	-4.074536
O	11.850301	1.481493	-1.481493
O	16.666530	1.111549	-1.111549
O	11.850301	3.704591	-3.704591
O	14.074091	3.704591	-1.481493
O	14.074091	1.481493	-3.704591
Pr	9.073538	-1.296521	-3.889563
Pr	16.850854	-1.296521	-1.296521
Pr	14.258415	1.296521	-1.296521
Pr	11.665977	1.296521	-3.889563
Ba	0.000000	-5.186084	-5.186084
Ba	2.592439	-7.779127	-7.779127
O	4.072982	-6.297633	-6.297633
O	-1.111895	-4.074536	-9.260620
O	1.111895	-6.297633	-9.260620
O	1.480543	-3.704591	-6.667578
O	6.296772	-4.074536	-6.297633
O	1.480543	-1.481493	-8.890676
O	3.704334	-1.481493	-6.667578
O	3.704334	-3.704591	-8.890676
Pr	-1.296219	-6.482606	-9.075648
Pr	6.481096	-6.482606	-6.482606
Pr	3.888658	-3.889563	-6.482606
Pr	1.296219	-3.889563	-9.075648
Ba	5.184879	0.000000	-5.186084
Ba	7.777317	-2.593042	-7.779127
O	9.257861	-1.111549	-6.297633
O	4.072984	1.111549	-9.260620
O	6.296774	-1.111549	-9.260620
O	6.665422	1.481493	-6.667578
O	11.481651	1.111549	-6.297633
O	6.665422	3.704591	-8.890676
O	8.889212	3.704591	-6.667578
O	8.889212	1.481493	-8.890676
Pr	3.888659	-1.296521	-9.075648
Pr	11.665975	-1.296521	-6.482606
Pr	9.073537	1.296521	-6.482606
Pr	6.481098	1.296521	-9.075648
