40

Dy	2.122554	2.122554	2.122554
O	2.122554	2.122554	0.000000
O	0.000000	2.122554	2.122554
O	2.122554	0.000000	2.122554
Tm	0.000000	0.000000	0.000000
Dy	2.122554	2.122554	6.367661
O	2.122554	2.122554	4.245107
O	0.000000	2.122554	6.367661
O	2.122554	0.000000	6.367661
Tm	0.000000	0.000000	4.245107
Dy	2.122554	6.367661	2.122554
O	2.122554	6.367661	0.000000
O	0.000000	6.367661	2.122554
O	2.122554	4.245107	2.122554
Tm	0.000000	4.245107	0.000000
Dy	2.122554	6.367661	6.367661
O	2.122554	6.367661	4.245107
O	0.000000	6.367661	6.367661
O	2.122554	4.245107	6.367661
Tm	0.000000	4.245107	4.245107
Dy	6.367661	2.122554	2.122554
O	6.367661	2.122554	0.000000
O	4.245107	2.122554	2.122554
O	6.367661	0.000000	2.122554
Tm	4.245107	0.000000	0.000000
Dy	6.367661	2.122554	6.367661
O	6.367661	2.122554	4.245107
O	4.245107	2.122554	6.367661
O	6.367661	0.000000	6.367661
Tm	4.245107	0.000000	4.245107
Dy	6.367661	6.367661	2.122554
O	6.367661	6.367661	0.000000
O	4.245107	6.367661	2.122554
O	6.367661	4.245107	2.122554
Tm	4.245107	4.245107	0.000000
Dy	6.367661	6.367661	6.367661
O	6.367661	6.367661	4.245107
O	4.245107	6.367661	6.367661
O	6.367661	4.245107	6.367661
Tm	4.245107	4.245107	4.245107
