112

In	0.000000	0.000000	0.000000
In	2.477995	-2.489821	-2.489821
O	-1.144448	1.142642	-3.836990
O	3.811552	-1.142642	-1.142642
O	1.144448	-1.142642	-3.836990
O	1.333547	1.347179	-1.347179
O	6.100438	1.142642	-1.142642
O	1.333547	3.632453	-3.632453
O	3.622443	3.632453	-1.347179
O	3.622443	1.347179	-3.632453
Pu	-1.238997	-1.244910	-3.734721
Pu	1.238997	1.244910	-3.734721
Pu	3.716992	1.244910	-1.244910
Pu	6.194997	-1.244910	-1.244910
In	4.955995	4.979632	0.000000
In	7.433990	2.489811	-2.489821
O	3.811547	6.122274	-3.836990
O	8.767547	3.836990	-1.142642
O	6.100443	3.836990	-3.836990
O	6.289542	6.326811	-1.347179
O	11.056433	6.122274	-1.142642
O	6.289542	8.612085	-3.632453
O	8.578438	8.612085	-1.347179
O	8.578438	6.326811	-3.632453
Pu	3.716997	3.734722	-3.734721
Pu	6.194992	6.224543	-3.734721
Pu	8.672987	6.224543	-1.244910
Pu	11.150992	3.734722	-1.244910
In	-4.955995	0.000000	-4.979632
In	-2.478000	-2.489821	-7.469453
O	-6.100443	1.142642	-8.816622
O	-1.144443	-1.142642	-6.122274
O	-3.811547	-1.142642	-8.816622
O	-3.622448	1.347179	-6.326811
O	1.144443	1.142642	-6.122274
O	-3.622448	3.632453	-8.612085
O	-1.333552	3.632453	-6.326811
O	-1.333552	1.347179	-8.612085
Pu	-6.194992	-1.244910	-8.714354
Pu	-3.716997	1.244910	-8.714354
Pu	-1.239003	1.244910	-6.224543
Pu	1.239002	-1.244910	-6.224543
In	0.000000	4.979632	-4.979632
In	2.477995	2.489811	-7.469453
O	-1.144448	6.122274	-8.816622
O	3.811552	3.836990	-6.122274
O	1.144448	3.836990	-8.816622
O	1.333547	6.326811	-6.326811
O	6.100438	6.122274	-6.122274
O	1.333547	8.612085	-8.612085
O	3.622443	8.612085	-6.326811
O	3.622443	6.326811	-8.612085
Pu	-1.238997	3.734722	-8.714354
Pu	1.238997	6.224543	-8.714354
Pu	3.716992	6.224543	-6.224543
Pu	6.194997	3.734722	-6.224543
In	4.955995	-4.979632	0.000000
In	7.433990	-7.469453	-2.489821
O	3.811547	-3.836990	-3.836990
O	8.767547	-6.122274	-1.142642
O	6.100443	-6.122274	-3.836990
O	6.289542	-3.632454	-1.347179
O	11.056433	-3.836990	-1.142642
O	6.289542	-1.347179	-3.632453
O	8.578438	-1.347179	-1.347179
O	8.578438	-3.632454	-3.632453
Pu	3.716997	-6.224543	-3.734721
Pu	6.194992	-3.734722	-3.734721
Pu	8.672987	-3.734722	-1.244910
Pu	11.150992	-6.224543	-1.244910
In	9.911990	0.000000	0.000000
In	12.389985	-2.489821	-2.489821
O	8.767542	1.142642	-3.836990
O	13.723542	-1.142642	-1.142642
O	11.056438	-1.142642	-3.836990
O	11.245537	1.347179	-1.347179
O	16.012427	1.142642	-1.142642
O	11.245537	3.632453	-3.632453
O	13.534433	3.632453	-1.347179
O	13.534433	1.347179	-3.632453
Pu	8.672992	-1.244910	-3.734721
Pu	11.150987	1.244910	-3.734721
Pu	13.628982	1.244910	-1.244910
Pu	16.106987	-1.244910	-1.244910
In	0.000000	-4.979632	-4.979632
In	2.477995	-7.469453	-7.469453
O	-1.144448	-3.836990	-8.816622
O	3.811552	-6.122274	-6.122274
O	1.144448	-6.122274	-8.816622
O	1.333547	-3.632454	-6.326811
O	6.100438	-3.836990	-6.122274
O	1.333547	-1.347179	-8.612085
O	3.622443	-1.347179	-6.326811
O	3.622443	-3.632454	-8.612085
Pu	-1.238997	-6.224543	-8.714354
Pu	1.238997	-3.734722	-8.714354
Pu	3.716992	-3.734722	-6.224543
Pu	6.194997	-6.224543	-6.224543
In	4.955995	0.000000	-4.979632
In	7.433990	-2.489821	-7.469453
O	3.811547	1.142642	-8.816622
O	8.767547	-1.142642	-6.122274
O	6.100443	-1.142642	-8.816622
O	6.289542	1.347179	-6.326811
O	11.056433	1.142642	-6.122274
O	6.289542	3.632453	-8.612085
O	8.578438	3.632453	-6.326811
O	8.578438	1.347179	-8.612085
Pu	3.716997	-1.244910	-8.714354
Pu	6.194992	1.244910	-8.714354
Pu	8.672987	1.244910	-6.224543
Pu	11.150992	-1.244910	-6.224543
