40

Ge	0.000000	0.000000	0.000000
O	2.198322	2.198322	0.000000
O	2.198322	0.000000	2.198322
O	0.000000	2.198322	2.198322
Pm	2.198322	2.198322	2.198322
Ge	0.000000	0.000000	4.396638
O	2.198322	2.198322	4.396638
O	2.198322	0.000000	6.594960
O	0.000000	2.198322	6.594960
Pm	2.198322	2.198322	6.594960
Ge	0.000000	4.396638	0.000000
O	2.198322	6.594960	0.000000
O	2.198322	4.396638	2.198322
O	0.000000	6.594960	2.198322
Pm	2.198322	6.594960	2.198322
Ge	0.000000	4.396638	4.396638
O	2.198322	6.594960	4.396638
O	2.198322	4.396638	6.594960
O	0.000000	6.594960	6.594960
Pm	2.198322	6.594960	6.594960
Ge	4.396638	0.000000	0.000000
O	6.594960	2.198322	0.000000
O	6.594960	0.000000	2.198322
O	4.396638	2.198322	2.198322
Pm	6.594960	2.198322	2.198322
Ge	4.396638	0.000000	4.396638
O	6.594960	2.198322	4.396638
O	6.594960	0.000000	6.594960
O	4.396638	2.198322	6.594960
Pm	6.594960	2.198322	6.594960
Ge	4.396638	4.396638	0.000000
O	6.594960	6.594960	0.000000
O	6.594960	4.396638	2.198322
O	4.396638	6.594960	2.198322
Pm	6.594960	6.594960	2.198322
Ge	4.396638	4.396638	4.396638
O	6.594960	6.594960	4.396638
O	6.594960	4.396638	6.594960
O	4.396638	6.594960	6.594960
Pm	6.594960	6.594960	6.594960
