40

Ge	0.000000	0.000000	0.000000
O	2.222487	2.222487	0.000000
O	2.222487	0.000000	2.222487
O	0.000000	2.222487	2.222487
Pm	2.222487	2.222487	2.222487
Ge	0.000000	0.000000	4.444974
O	2.222487	2.222487	4.444974
O	2.222487	0.000000	6.667461
O	0.000000	2.222487	6.667461
Pm	2.222487	2.222487	6.667461
Ge	0.000000	4.444974	0.000000
O	2.222487	6.667461	0.000000
O	2.222487	4.444974	2.222487
O	0.000000	6.667461	2.222487
Pm	2.222487	6.667461	2.222487
Ge	0.000000	4.444974	4.444974
O	2.222487	6.667461	4.444974
O	2.222487	4.444974	6.667461
O	0.000000	6.667461	6.667461
Pm	2.222487	6.667461	6.667461
Ge	4.444974	0.000000	0.000000
O	6.667461	2.222487	0.000000
O	6.667461	0.000000	2.222487
O	4.444974	2.222487	2.222487
Pm	6.667461	2.222487	2.222487
Ge	4.444974	0.000000	4.444974
O	6.667461	2.222487	4.444974
O	6.667461	0.000000	6.667461
O	4.444974	2.222487	6.667461
Pm	6.667461	2.222487	6.667461
Ge	4.444974	4.444974	0.000000
O	6.667461	6.667461	0.000000
O	6.667461	4.444974	2.222487
O	4.444974	6.667461	2.222487
Pm	6.667461	6.667461	2.222487
Ge	4.444974	4.444974	4.444974
O	6.667461	6.667461	4.444974
O	6.667461	4.444974	6.667461
O	4.444974	6.667461	6.667461
Pm	6.667461	6.667461	6.667461
