96

As	0.000000	0.000000	0.000000
O	3.547511	3.547511	0.000000
O	3.547511	0.000000	3.547511
O	0.000000	3.547511	3.547511
Rb	1.877341	1.877341	1.877341
Rb	5.217682	1.877341	1.877341
Rb	1.877341	5.217682	1.877341
Rb	5.217682	5.217682	1.877341
Rb	1.877341	1.877341	5.217682
Rb	5.217682	1.877341	5.217682
Rb	1.877341	5.217682	5.217682
Rb	5.217682	5.217682	5.217682
As	0.000000	0.000000	7.095022
O	3.547511	3.547511	7.095022
O	3.547511	0.000000	10.642533
O	0.000000	3.547511	10.642533
Rb	1.877341	1.877341	8.972363
Rb	5.217682	1.877341	8.972363
Rb	1.877341	5.217682	8.972363
Rb	5.217682	5.217682	8.972363
Rb	1.877341	1.877341	12.312704
Rb	5.217682	1.877341	12.312704
Rb	1.877341	5.217682	12.312704
Rb	5.217682	5.217682	12.312704
As	0.000000	7.095022	0.000000
O	3.547511	10.642533	0.000000
O	3.547511	7.095022	3.547511
O	0.000000	10.642533	3.547511
Rb	1.877341	8.972363	1.877341
Rb	5.217682	8.972363	1.877341
Rb	1.877341	12.312704	1.877341
Rb	5.217682	12.312704	1.877341
Rb	1.877341	8.972363	5.217682
Rb	5.217682	8.972363	5.217682
Rb	1.877341	12.312704	5.217682
Rb	5.217682	12.312704	5.217682
As	0.000000	7.095022	7.095022
O	3.547511	10.642533	7.095022
O	3.547511	7.095022	10.642533
O	0.000000	10.642533	10.642533
Rb	1.877341	8.972363	8.972363
Rb	5.217682	8.972363	8.972363
Rb	1.877341	12.312704	8.972363
Rb	5.217682	12.312704	8.972363
Rb	1.877341	8.972363	12.312704
Rb	5.217682	8.972363	12.312704
Rb	1.877341	12.312704	12.312704
Rb	5.217682	12.312704	12.312704
As	7.095022	0.000000	0.000000
O	10.642533	3.547511	0.000000
O	10.642533	0.000000	3.547511
O	7.095022	3.547511	3.547511
Rb	8.972363	1.877341	1.877341
Rb	12.312704	1.877341	1.877341
Rb	8.972363	5.217682	1.877341
Rb	12.312704	5.217682	1.877341
Rb	8.972363	1.877341	5.217682
Rb	12.312704	1.877341	5.217682
Rb	8.972363	5.217682	5.217682
Rb	12.312704	5.217682	5.217682
As	7.095022	0.000000	7.095022
O	10.642533	3.547511	7.095022
O	10.642533	0.000000	10.642533
O	7.095022	3.547511	10.642533
Rb	8.972363	1.877341	8.972363
Rb	12.312704	1.877341	8.972363
Rb	8.972363	5.217682	8.972363
Rb	12.312704	5.217682	8.972363
Rb	8.972363	1.877341	12.312704
Rb	12.312704	1.877341	12.312704
Rb	8.972363	5.217682	12.312704
Rb	12.312704	5.217682	12.312704
As	7.095022	7.095022	0.000000
O	10.642533	10.642533	0.000000
O	10.642533	7.095022	3.547511
O	7.095022	10.642533	3.547511
Rb	8.972363	8.972363	1.877341
Rb	12.312704	8.972363	1.877341
Rb	8.972363	12.312704	1.877341
Rb	12.312704	12.312704	1.877341
Rb	8.972363	8.972363	5.217682
Rb	12.312704	8.972363	5.217682
Rb	8.972363	12.312704	5.217682
Rb	12.312704	12.312704	5.217682
As	7.095022	7.095022	7.095022
O	10.642533	10.642533	7.095022
O	10.642533	7.095022	10.642533
O	7.095022	10.642533	10.642533
Rb	8.972363	8.972363	8.972363
Rb	12.312704	8.972363	8.972363
Rb	8.972363	12.312704	8.972363
Rb	12.312704	12.312704	8.972363
Rb	8.972363	8.972363	12.312704
Rb	12.312704	8.972363	12.312704
Rb	8.972363	12.312704	12.312704
Rb	12.312704	12.312704	12.312704
