40

Nd	2.214067	2.214067	2.214067
O	2.214067	2.214067	0.000000
O	0.000000	2.214067	2.214067
O	2.214067	0.000000	2.214067
Tm	0.000000	0.000000	0.000000
Nd	2.214067	2.214067	6.642200
O	2.214067	2.214067	4.428134
O	0.000000	2.214067	6.642200
O	2.214067	0.000000	6.642200
Tm	0.000000	0.000000	4.428134
Nd	2.214067	6.642200	2.214067
O	2.214067	6.642200	0.000000
O	0.000000	6.642200	2.214067
O	2.214067	4.428134	2.214067
Tm	0.000000	4.428134	0.000000
Nd	2.214067	6.642200	6.642200
O	2.214067	6.642200	4.428134
O	0.000000	6.642200	6.642200
O	2.214067	4.428134	6.642200
Tm	0.000000	4.428134	4.428134
Nd	6.642200	2.214067	2.214067
O	6.642200	2.214067	0.000000
O	4.428134	2.214067	2.214067
O	6.642200	0.000000	2.214067
Tm	4.428134	0.000000	0.000000
Nd	6.642200	2.214067	6.642200
O	6.642200	2.214067	4.428134
O	4.428134	2.214067	6.642200
O	6.642200	0.000000	6.642200
Tm	4.428134	0.000000	4.428134
Nd	6.642200	6.642200	2.214067
O	6.642200	6.642200	0.000000
O	4.428134	6.642200	2.214067
O	6.642200	4.428134	2.214067
Tm	4.428134	4.428134	0.000000
Nd	6.642200	6.642200	6.642200
O	6.642200	6.642200	4.428134
O	4.428134	6.642200	6.642200
O	6.642200	4.428134	6.642200
Tm	4.428134	4.428134	4.428134
