40

Nd	2.239161	2.239161	2.239161
O	2.239161	2.239161	0.000000
O	2.239161	0.000000	2.239161
O	0.000000	2.239161	2.239161
Tm	0.000000	0.000000	0.000000
Nd	2.239161	2.239161	6.717484
O	2.239161	2.239161	4.478323
O	2.239161	0.000000	6.717484
O	0.000000	2.239161	6.717484
Tm	0.000000	0.000000	4.478323
Nd	2.239161	6.717484	2.239161
O	2.239161	6.717484	0.000000
O	2.239161	4.478323	2.239161
O	0.000000	6.717484	2.239161
Tm	0.000000	4.478323	0.000000
Nd	2.239161	6.717484	6.717484
O	2.239161	6.717484	4.478323
O	2.239161	4.478323	6.717484
O	0.000000	6.717484	6.717484
Tm	0.000000	4.478323	4.478323
Nd	6.717484	2.239161	2.239161
O	6.717484	2.239161	0.000000
O	6.717484	0.000000	2.239161
O	4.478323	2.239161	2.239161
Tm	4.478323	0.000000	0.000000
Nd	6.717484	2.239161	6.717484
O	6.717484	2.239161	4.478323
O	6.717484	0.000000	6.717484
O	4.478323	2.239161	6.717484
Tm	4.478323	0.000000	4.478323
Nd	6.717484	6.717484	2.239161
O	6.717484	6.717484	0.000000
O	6.717484	4.478323	2.239161
O	4.478323	6.717484	2.239161
Tm	4.478323	4.478323	0.000000
Nd	6.717484	6.717484	6.717484
O	6.717484	6.717484	4.478323
O	6.717484	4.478323	6.717484
O	4.478323	6.717484	6.717484
Tm	4.478323	4.478323	4.478323
