40

Er	0.000000	0.000000	0.000000
Np	2.219070	2.219070	2.219070
O	2.219070	2.219070	0.000000
O	2.219070	0.000000	2.219070
O	0.000000	2.219070	2.219070
Er	0.000000	0.000000	4.438139
Np	2.219070	2.219070	6.657209
O	2.219070	2.219070	4.438139
O	2.219070	0.000000	6.657209
O	0.000000	2.219070	6.657209
Er	0.000000	4.438139	0.000000
Np	2.219070	6.657209	2.219070
O	2.219070	6.657209	0.000000
O	2.219070	4.438139	2.219070
O	0.000000	6.657209	2.219070
Er	0.000000	4.438139	4.438139
Np	2.219070	6.657209	6.657209
O	2.219070	6.657209	4.438139
O	2.219070	4.438139	6.657209
O	0.000000	6.657209	6.657209
Er	4.438139	0.000000	0.000000
Np	6.657209	2.219070	2.219070
O	6.657209	2.219070	0.000000
O	6.657209	0.000000	2.219070
O	4.438139	2.219070	2.219070
Er	4.438139	0.000000	4.438139
Np	6.657209	2.219070	6.657209
O	6.657209	2.219070	4.438139
O	6.657209	0.000000	6.657209
O	4.438139	2.219070	6.657209
Er	4.438139	4.438139	0.000000
Np	6.657209	6.657209	2.219070
O	6.657209	6.657209	0.000000
O	6.657209	4.438139	2.219070
O	4.438139	6.657209	2.219070
Er	4.438139	4.438139	4.438139
Np	6.657209	6.657209	6.657209
O	6.657209	6.657209	4.438139
O	6.657209	4.438139	6.657209
O	4.438139	6.657209	6.657209
