40

Mo	0.000000	0.000000	0.000000
O	1.955370	1.955370	0.000000
O	0.000000	1.955370	1.955370
O	1.955370	0.000000	1.955370
Re	1.955370	1.955370	1.955370
Mo	0.000000	0.000000	3.910731
O	1.955370	1.955370	3.910731
O	0.000000	1.955370	5.866101
O	1.955370	0.000000	5.866101
Re	1.955370	1.955370	5.866101
Mo	0.000000	3.910731	0.000000
O	1.955370	5.866101	0.000000
O	0.000000	5.866101	1.955370
O	1.955370	3.910731	1.955370
Re	1.955370	5.866101	1.955370
Mo	0.000000	3.910731	3.910731
O	1.955370	5.866101	3.910731
O	0.000000	5.866101	5.866101
O	1.955370	3.910731	5.866101
Re	1.955370	5.866101	5.866101
Mo	3.910731	0.000000	0.000000
O	5.866101	1.955370	0.000000
O	3.910731	1.955370	1.955370
O	5.866101	0.000000	1.955370
Re	5.866101	1.955370	1.955370
Mo	3.910731	0.000000	3.910731
O	5.866101	1.955370	3.910731
O	3.910731	1.955370	5.866101
O	5.866101	0.000000	5.866101
Re	5.866101	1.955370	5.866101
Mo	3.910731	3.910731	0.000000
O	5.866101	5.866101	0.000000
O	3.910731	5.866101	1.955370
O	5.866101	3.910731	1.955370
Re	5.866101	5.866101	1.955370
Mo	3.910731	3.910731	3.910731
O	5.866101	5.866101	3.910731
O	3.910731	5.866101	5.866101
O	5.866101	3.910731	5.866101
Re	5.866101	5.866101	5.866101
