40

Mo	1.988841	1.988841	1.988841
O	1.988841	1.988841	0.000000
O	1.988841	0.000000	1.988841
O	0.000000	1.988841	1.988841
Re	0.000000	0.000000	0.000000
Mo	1.988841	1.988841	5.966523
O	1.988841	1.988841	3.977682
O	1.988841	0.000000	5.966523
O	0.000000	1.988841	5.966523
Re	0.000000	0.000000	3.977682
Mo	1.988841	5.966523	1.988841
O	1.988841	5.966523	0.000000
O	1.988841	3.977682	1.988841
O	0.000000	5.966523	1.988841
Re	0.000000	3.977682	0.000000
Mo	1.988841	5.966523	5.966523
O	1.988841	5.966523	3.977682
O	1.988841	3.977682	5.966523
O	0.000000	5.966523	5.966523
Re	0.000000	3.977682	3.977682
Mo	5.966523	1.988841	1.988841
O	5.966523	1.988841	0.000000
O	5.966523	0.000000	1.988841
O	3.977682	1.988841	1.988841
Re	3.977682	0.000000	0.000000
Mo	5.966523	1.988841	5.966523
O	5.966523	1.988841	3.977682
O	5.966523	0.000000	5.966523
O	3.977682	1.988841	5.966523
Re	3.977682	0.000000	3.977682
Mo	5.966523	5.966523	1.988841
O	5.966523	5.966523	0.000000
O	5.966523	3.977682	1.988841
O	3.977682	5.966523	1.988841
Re	3.977682	3.977682	0.000000
Mo	5.966523	5.966523	5.966523
O	5.966523	5.966523	3.977682
O	5.966523	3.977682	5.966523
O	3.977682	5.966523	5.966523
Re	3.977682	3.977682	3.977682
