40

Mg	0.000000	0.000000	0.000000
O	1.935760	1.935760	0.000000
O	0.000000	1.935760	1.935760
O	1.935760	0.000000	1.935760
Tc_pv	1.935760	1.935760	1.935760
Mg	0.000000	0.000000	3.871517
O	1.935760	1.935760	3.871517
O	0.000000	1.935760	5.807277
O	1.935760	0.000000	5.807277
Tc_pv	1.935760	1.935760	5.807277
Mg	0.000000	3.871517	0.000000
O	1.935760	5.807277	0.000000
O	0.000000	5.807277	1.935760
O	1.935760	3.871517	1.935760
Tc_pv	1.935760	5.807277	1.935760
Mg	0.000000	3.871517	3.871517
O	1.935760	5.807277	3.871517
O	0.000000	5.807277	5.807277
O	1.935760	3.871517	5.807277
Tc_pv	1.935760	5.807277	5.807277
Mg	3.871517	0.000000	0.000000
O	5.807277	1.935760	0.000000
O	3.871517	1.935760	1.935760
O	5.807277	0.000000	1.935760
Tc_pv	5.807277	1.935760	1.935760
Mg	3.871517	0.000000	3.871517
O	5.807277	1.935760	3.871517
O	3.871517	1.935760	5.807277
O	5.807277	0.000000	5.807277
Tc_pv	5.807277	1.935760	5.807277
Mg	3.871517	3.871517	0.000000
O	5.807277	5.807277	0.000000
O	3.871517	5.807277	1.935760
O	5.807277	3.871517	1.935760
Tc_pv	5.807277	5.807277	1.935760
Mg	3.871517	3.871517	3.871517
O	5.807277	5.807277	3.871517
O	3.871517	5.807277	5.807277
O	5.807277	3.871517	5.807277
Tc_pv	5.807277	5.807277	5.807277
