40

Cd	0.000000	0.000000	0.000000
Eu	2.103410	2.103410	2.103410
O	2.103410	0.000000	2.103410
O	0.000000	2.103410	2.103410
O	2.103410	2.103410	0.000000
Cd	0.000000	0.000000	4.206832
Eu	2.103410	2.103410	6.310242
O	2.103410	0.000000	6.310242
O	0.000000	2.103410	6.310242
O	2.103410	2.103410	4.206832
Cd	0.000000	4.206832	0.000000
Eu	2.103410	6.310242	2.103410
O	2.103410	4.206832	2.103410
O	0.000000	6.310242	2.103410
O	2.103410	6.310242	0.000000
Cd	0.000000	4.206832	4.206832
Eu	2.103410	6.310242	6.310242
O	2.103410	4.206832	6.310242
O	0.000000	6.310242	6.310242
O	2.103410	6.310242	4.206832
Cd	4.206832	0.000000	0.000000
Eu	6.310242	2.103410	2.103410
O	6.310242	0.000000	2.103410
O	4.206832	2.103410	2.103410
O	6.310242	2.103410	0.000000
Cd	4.206832	0.000000	4.206832
Eu	6.310242	2.103410	6.310242
O	6.310242	0.000000	6.310242
O	4.206832	2.103410	6.310242
O	6.310242	2.103410	4.206832
Cd	4.206832	4.206832	0.000000
Eu	6.310242	6.310242	2.103410
O	6.310242	4.206832	2.103410
O	4.206832	6.310242	2.103410
O	6.310242	6.310242	0.000000
Cd	4.206832	4.206832	4.206832
Eu	6.310242	6.310242	6.310242
O	6.310242	4.206832	6.310242
O	4.206832	6.310242	6.310242
O	6.310242	6.310242	4.206832
