112

Co	0.000000	0.000000	0.000000
Co	2.209570	-2.192233	-2.192233
Na	-1.104790	-1.096111	-3.288344
Na	3.314360	1.096111	-1.096111
Na	5.523930	-1.096111	-1.096111
Na	1.104790	1.096111	-3.288344
O	0.964713	0.957181	-0.957181
O	1.244857	-1.235042	-3.149414
O	3.174283	-1.235042	-1.235042
O	-1.244857	1.235042	-3.149414
O	3.454427	0.957181	-3.427274
O	3.454427	3.427274	-0.957181
O	0.964713	3.427274	-3.427274
O	5.663997	1.235042	-1.235042
Co	4.419143	4.384458	0.000000
Co	6.628713	2.192225	-2.192233
Na	3.314353	3.288346	-3.288344
Na	7.733503	5.480569	-1.096111
Na	9.943073	3.288346	-1.096111
Na	5.523933	5.480569	-3.288344
O	5.383856	5.341639	-0.957181
O	5.664000	3.149416	-3.149414
O	7.593426	3.149416	-1.235042
O	3.174286	5.619499	-3.149414
O	7.873570	5.341639	-3.427274
O	7.873570	7.811732	-0.957181
O	5.383856	7.811732	-3.427274
O	10.083140	5.619499	-1.235042
Co	-4.419143	0.000000	-4.384458
Co	-2.209573	-2.192233	-6.576690
Na	-5.523933	-1.096111	-7.672802
Na	-1.104783	1.096111	-5.480569
Na	1.104787	-1.096111	-5.480569
Na	-3.314353	1.096111	-7.672802
O	-3.454430	0.957181	-5.341639
O	-3.174286	-1.235042	-7.533872
O	-1.244860	-1.235042	-5.619499
O	-5.664000	1.235042	-7.533872
O	-0.964716	0.957181	-7.811732
O	-0.964716	3.427274	-5.341639
O	-3.454430	3.427274	-7.811732
O	1.244854	1.235042	-5.619499
Co	0.000000	4.384458	-4.384458
Co	2.209570	2.192225	-6.576690
Na	-1.104790	3.288346	-7.672802
Na	3.314360	5.480569	-5.480569
Na	5.523930	3.288346	-5.480569
Na	1.104790	5.480569	-7.672802
O	0.964713	5.341639	-5.341639
O	1.244857	3.149416	-7.533872
O	3.174283	3.149416	-5.619499
O	-1.244857	5.619499	-7.533872
O	3.454427	5.341639	-7.811732
O	3.454427	7.811732	-5.341639
O	0.964713	7.811732	-7.811732
O	5.663997	5.619499	-5.619499
Co	4.419143	-4.384458	0.000000
Co	6.628713	-6.576690	-2.192233
Na	3.314353	-5.480569	-3.288344
Na	7.733503	-3.288346	-1.096111
Na	9.943073	-5.480569	-1.096111
Na	5.523933	-3.288346	-3.288344
O	5.383856	-3.427276	-0.957181
O	5.664000	-5.619499	-3.149414
O	7.593426	-5.619499	-1.235042
O	3.174286	-3.149416	-3.149414
O	7.873570	-3.427276	-3.427274
O	7.873570	-0.957183	-0.957181
O	5.383856	-0.957183	-3.427274
O	10.083140	-3.149416	-1.235042
Co	8.838286	0.000000	0.000000
Co	11.047856	-2.192233	-2.192233
Na	7.733496	-1.096111	-3.288344
Na	12.152646	1.096111	-1.096111
Na	14.362216	-1.096111	-1.096111
Na	9.943076	1.096111	-3.288344
O	9.802999	0.957181	-0.957181
O	10.083143	-1.235042	-3.149414
O	12.012569	-1.235042	-1.235042
O	7.593429	1.235042	-3.149414
O	12.292713	0.957181	-3.427274
O	12.292713	3.427274	-0.957181
O	9.802999	3.427274	-3.427274
O	14.502283	1.235042	-1.235042
Co	0.000000	-4.384458	-4.384458
Co	2.209570	-6.576690	-6.576690
Na	-1.104790	-5.480569	-7.672802
Na	3.314360	-3.288346	-5.480569
Na	5.523930	-5.480569	-5.480569
Na	1.104790	-3.288346	-7.672802
O	0.964713	-3.427276	-5.341639
O	1.244857	-5.619499	-7.533872
O	3.174283	-5.619499	-5.619499
O	-1.244857	-3.149416	-7.533872
O	3.454427	-3.427276	-7.811732
O	3.454427	-0.957183	-5.341639
O	0.964713	-0.957183	-7.811732
O	5.663997	-3.149416	-5.619499
Co	4.419143	0.000000	-4.384458
Co	6.628713	-2.192233	-6.576690
Na	3.314353	-1.096111	-7.672802
Na	7.733503	1.096111	-5.480569
Na	9.943073	-1.096111	-5.480569
Na	5.523933	1.096111	-7.672802
O	5.383856	0.957181	-5.341639
O	5.664000	-1.235042	-7.533872
O	7.593426	-1.235042	-5.619499
O	3.174286	1.235042	-7.533872
O	7.873570	0.957181	-7.811732
O	7.873570	3.427274	-5.341639
O	5.383856	3.427274	-7.811732
O	10.083140	1.235042	-5.619499
