112

Co	0.000000	0.000000	0.000000
Co	2.191895	-2.182875	-2.182875
Na	-1.095952	-1.091433	-3.274308
Na	3.287848	1.091433	-1.091433
Na	1.095952	1.091433	-3.274308
Na	5.479743	-1.091433	-1.091433
O	0.960760	0.957262	-0.957262
O	-1.231135	1.225603	-3.140137
O	3.152655	-1.225603	-1.225603
O	1.231135	-1.225603	-3.140137
O	0.960760	3.408478	-3.408478
O	3.423031	3.408478	-0.957262
O	3.423030	0.957262	-3.408478
O	5.614926	1.225603	-1.225603
Co	4.383793	4.365748	0.000000
Co	6.575688	2.182873	-2.182875
Na	3.287841	3.274315	-3.274308
Na	7.671641	5.457181	-1.091433
Na	5.479746	5.457181	-3.274308
Na	9.863536	3.274315	-1.091433
O	5.344553	5.323010	-0.957262
O	3.152658	5.591351	-3.140137
O	7.536448	3.140145	-1.225603
O	5.614929	3.140145	-3.140137
O	5.344553	7.774226	-3.408478
O	7.806824	7.774226	-0.957262
O	7.806824	5.323010	-3.408478
O	9.998719	5.591351	-1.225603
Co	-4.383793	0.000000	-4.365748
Co	-2.191898	-2.182875	-6.548623
Na	-5.479746	-1.091433	-7.640056
Na	-1.095946	1.091433	-5.457181
Na	-3.287841	1.091433	-7.640056
Na	1.095949	-1.091433	-5.457181
O	-3.423034	0.957262	-5.323010
O	-5.614929	1.225603	-7.505885
O	-1.231139	-1.225603	-5.591351
O	-3.152658	-1.225603	-7.505885
O	-3.423034	3.408478	-7.774226
O	-0.960763	3.408478	-5.323010
O	-0.960763	0.957262	-7.774226
O	1.231132	1.225603	-5.591351
Co	0.000000	4.365748	-4.365748
Co	2.191895	2.182873	-6.548623
Na	-1.095952	3.274315	-7.640056
Na	3.287848	5.457181	-5.457181
Na	1.095952	5.457181	-7.640056
Na	5.479743	3.274315	-5.457181
O	0.960760	5.323010	-5.323010
O	-1.231135	5.591351	-7.505885
O	3.152655	3.140145	-5.591351
O	1.231135	3.140145	-7.505885
O	0.960760	7.774226	-7.774226
O	3.423031	7.774226	-5.323010
O	3.423030	5.323010	-7.774226
O	5.614926	5.591351	-5.591351
Co	4.383793	-4.365748	0.000000
Co	6.575688	-6.548623	-2.182875
Na	3.287841	-5.457181	-3.274308
Na	7.671641	-3.274315	-1.091433
Na	5.479746	-3.274315	-3.274308
Na	9.863536	-5.457181	-1.091433
O	5.344553	-3.408486	-0.957262
O	3.152658	-3.140145	-3.140137
O	7.536448	-5.591351	-1.225603
O	5.614929	-5.591351	-3.140137
O	5.344553	-0.957269	-3.408478
O	7.806824	-0.957269	-0.957262
O	7.806824	-3.408486	-3.408478
O	9.998719	-3.140145	-1.225603
Co	8.767586	0.000000	0.000000
Co	10.959482	-2.182875	-2.182875
Na	7.671634	-1.091433	-3.274308
Na	12.055434	1.091433	-1.091433
Na	9.863539	1.091433	-3.274308
Na	14.247329	-1.091433	-1.091433
O	9.728346	0.957262	-0.957262
O	7.536451	1.225603	-3.140137
O	11.920241	-1.225603	-1.225603
O	9.998722	-1.225603	-3.140137
O	9.728346	3.408478	-3.408478
O	12.190617	3.408478	-0.957262
O	12.190617	0.957262	-3.408478
O	14.382512	1.225603	-1.225603
Co	0.000000	-4.365748	-4.365748
Co	2.191895	-6.548623	-6.548623
Na	-1.095952	-5.457181	-7.640056
Na	3.287848	-3.274315	-5.457181
Na	1.095952	-3.274315	-7.640056
Na	5.479743	-5.457181	-5.457181
O	0.960760	-3.408486	-5.323010
O	-1.231135	-3.140145	-7.505885
O	3.152655	-5.591351	-5.591351
O	1.231135	-5.591351	-7.505885
O	0.960760	-0.957269	-7.774226
O	3.423031	-0.957269	-5.323010
O	3.423030	-3.408486	-7.774226
O	5.614926	-3.140145	-5.591351
Co	4.383793	0.000000	-4.365748
Co	6.575688	-2.182875	-6.548623
Na	3.287841	-1.091433	-7.640056
Na	7.671641	1.091433	-5.457181
Na	5.479746	1.091433	-7.640056
Na	9.863536	-1.091433	-5.457181
O	5.344553	0.957262	-5.323010
O	3.152658	1.225603	-7.505885
O	7.536448	-1.225603	-5.591351
O	5.614929	-1.225603	-7.505885
O	5.344553	3.408478	-7.774226
O	7.806824	3.408478	-5.323010
O	7.806824	0.957262	-7.774226
O	9.998719	1.225603	-5.591351
