112

O	0.968018	0.968200	-0.968200
O	-1.205467	1.205373	-3.141773
O	3.141494	-1.205373	-1.205373
O	1.205467	-1.205373	-3.141773
O	0.968018	3.378945	-3.378945
O	3.378942	3.378945	-0.968200
O	3.378942	0.968200	-3.378945
O	5.552418	1.205373	-1.205373
Si	0.000000	0.000000	0.000000
Si	2.173475	-2.173573	-2.173573
Yb	-1.086743	-1.086786	-3.260359
Yb	5.433693	-1.086786	-1.086786
Yb	3.260218	1.086786	-1.086786
Yb	1.086743	1.086786	-3.260359
O	5.314974	5.315347	-0.968200
O	3.141489	5.552519	-3.141773
O	7.488449	3.141774	-1.205373
O	5.552423	3.141774	-3.141773
O	5.314974	7.726092	-3.378945
O	7.725898	7.726092	-0.968200
O	7.725898	5.315347	-3.378945
O	9.899373	5.552519	-1.205373
Si	4.346956	4.347146	0.000000
Si	6.520431	2.173574	-2.173573
Yb	3.260213	3.260360	-3.260359
Yb	9.780649	3.260360	-1.086786
Yb	7.607174	5.433933	-1.086786
Yb	5.433698	5.433933	-3.260359
O	-3.378937	0.968200	-5.315347
O	-5.552423	1.205373	-7.488919
O	-1.205462	-1.205373	-5.552519
O	-3.141489	-1.205373	-7.488919
O	-3.378937	3.378945	-7.726092
O	-0.968013	3.378945	-5.315347
O	-0.968013	0.968200	-7.726092
O	1.205462	1.205373	-5.552519
Si	-4.346956	0.000000	-4.347146
Si	-2.173480	-2.173573	-6.520719
Yb	-5.433698	-1.086786	-7.607506
Yb	1.086738	-1.086786	-5.433933
Yb	-1.086738	1.086786	-5.433933
Yb	-3.260213	1.086786	-7.607506
O	0.968018	5.315347	-5.315347
O	-1.205467	5.552519	-7.488919
O	3.141494	3.141774	-5.552519
O	1.205467	3.141774	-7.488919
O	0.968018	7.726092	-7.726092
O	3.378942	7.726092	-5.315347
O	3.378942	5.315347	-7.726092
O	5.552418	5.552519	-5.552519
Si	0.000000	4.347146	-4.347146
Si	2.173475	2.173574	-6.520719
Yb	-1.086743	3.260360	-7.607506
Yb	5.433693	3.260360	-5.433933
Yb	3.260218	5.433933	-5.433933
Yb	1.086743	5.433933	-7.607506
O	5.314974	-3.378946	-0.968200
O	3.141489	-3.141774	-3.141773
O	7.488449	-5.552519	-1.205373
O	5.552423	-5.552519	-3.141773
O	5.314974	-0.968201	-3.378945
O	7.725898	-0.968201	-0.968200
O	7.725898	-3.378946	-3.378945
O	9.899373	-3.141774	-1.205373
Si	4.346956	-4.347146	0.000000
Si	6.520431	-6.520719	-2.173573
Yb	3.260213	-5.433933	-3.260359
Yb	9.780649	-5.433933	-1.086786
Yb	7.607174	-3.260360	-1.086786
Yb	5.433698	-3.260360	-3.260359
O	9.661930	0.968200	-0.968200
O	7.488445	1.205373	-3.141773
O	11.835405	-1.205373	-1.205373
O	9.899378	-1.205373	-3.141773
O	9.661930	3.378945	-3.378945
O	12.072854	3.378945	-0.968200
O	12.072854	0.968200	-3.378945
O	14.246329	1.205373	-1.205373
Si	8.693912	0.000000	0.000000
Si	10.867387	-2.173573	-2.173573
Yb	7.607169	-1.086786	-3.260359
Yb	14.127605	-1.086786	-1.086786
Yb	11.954130	1.086786	-1.086786
Yb	9.780654	1.086786	-3.260359
O	0.968018	-3.378946	-5.315347
O	-1.205467	-3.141774	-7.488919
O	3.141494	-5.552519	-5.552519
O	1.205467	-5.552519	-7.488919
O	0.968018	-0.968201	-7.726092
O	3.378942	-0.968201	-5.315347
O	3.378942	-3.378946	-7.726092
O	5.552418	-3.141774	-5.552519
Si	0.000000	-4.347146	-4.347146
Si	2.173475	-6.520719	-6.520719
Yb	-1.086743	-5.433933	-7.607506
Yb	5.433693	-5.433933	-5.433933
Yb	3.260218	-3.260360	-5.433933
Yb	1.086743	-3.260360	-7.607506
O	5.314974	0.968200	-5.315347
O	3.141489	1.205373	-7.488919
O	7.488449	-1.205373	-5.552519
O	5.552423	-1.205373	-7.488919
O	5.314974	3.378945	-7.726092
O	7.725898	3.378945	-5.315347
O	7.725898	0.968200	-7.726092
O	9.899373	1.205373	-5.552519
Si	4.346956	0.000000	-4.347146
Si	6.520431	-2.173573	-6.520719
Yb	3.260213	-1.086786	-7.607506
Yb	9.780649	-1.086786	-5.433933
Yb	7.607174	1.086786	-5.433933
Yb	5.433698	1.086786	-7.607506
