112

O	3.731827	-1.214233	-1.214233
O	-1.244203	1.214233	-3.770020
O	1.244203	-1.214233	-3.770020
O	1.243812	1.277898	-1.277898
O	6.220242	1.214233	-1.214233
O	1.243812	3.706354	-3.706354
O	3.732217	3.706354	-1.277898
O	3.732217	1.277898	-3.706354
Pa	0.000000	0.000000	0.000000
Pa	2.488015	-2.492131	-2.492131
Pu	-1.244012	-1.246061	-3.738192
Pu	3.732027	1.246061	-1.246061
Pu	6.220042	-1.246061	-1.246061
Pu	1.244012	1.246061	-3.738192
O	8.707859	3.770021	-1.214233
O	3.731830	6.198487	-3.770020
O	6.220235	3.770021	-3.770020
O	6.219845	6.262152	-1.277898
O	11.196275	6.198487	-1.214233
O	6.219845	8.690608	-3.706354
O	8.708250	8.690608	-1.277898
O	8.708250	6.262152	-3.706354
Pa	4.976033	4.984254	0.000000
Pa	7.464047	2.492122	-2.492131
Pu	3.732020	3.738193	-3.738192
Pu	8.708060	6.230314	-1.246061
Pu	11.196074	3.738193	-1.246061
Pu	6.220045	6.230314	-3.738192
O	-1.244206	-1.214233	-6.198487
O	-6.220235	1.214233	-8.754273
O	-3.731830	-1.214233	-8.754273
O	-3.732221	1.277898	-6.262152
O	1.244209	1.214233	-6.198487
O	-3.732220	3.706354	-8.690608
O	-1.243815	3.706354	-6.262152
O	-1.243815	1.277898	-8.690608
Pa	-4.976033	0.000000	-4.984254
Pa	-2.488018	-2.492131	-7.476385
Pu	-6.220045	-1.246061	-8.722446
Pu	-1.244006	1.246061	-6.230314
Pu	1.244009	-1.246061	-6.230314
Pu	-3.732020	1.246061	-8.722446
O	3.731827	3.770021	-6.198487
O	-1.244203	6.198487	-8.754273
O	1.244203	3.770021	-8.754273
O	1.243812	6.262152	-6.262152
O	6.220242	6.198487	-6.198487
O	1.243812	8.690608	-8.690608
O	3.732217	8.690608	-6.262152
O	3.732217	6.262152	-8.690608
Pa	0.000000	4.984254	-4.984254
Pa	2.488015	2.492122	-7.476385
Pu	-1.244012	3.738193	-8.722446
Pu	3.732027	6.230314	-6.230314
Pu	6.220042	3.738193	-6.230314
Pu	1.244012	6.230314	-8.722446
O	8.707859	-6.198487	-1.214233
O	3.731830	-3.770021	-3.770020
O	6.220235	-6.198487	-3.770020
O	6.219845	-3.706355	-1.277898
O	11.196275	-3.770021	-1.214233
O	6.219845	-1.277899	-3.706354
O	8.708250	-1.277899	-1.277898
O	8.708250	-3.706355	-3.706354
Pa	4.976033	-4.984254	0.000000
Pa	7.464047	-7.476385	-2.492131
Pu	3.732020	-6.230314	-3.738192
Pu	8.708060	-3.738193	-1.246061
Pu	11.196074	-6.230314	-1.246061
Pu	6.220045	-3.738193	-3.738192
O	13.683892	-1.214233	-1.214233
O	8.707863	1.214233	-3.770020
O	11.196268	-1.214233	-3.770020
O	11.195877	1.277898	-1.277898
O	16.172307	1.214233	-1.214233
O	11.195877	3.706354	-3.706354
O	13.684283	3.706354	-1.277898
O	13.684283	1.277898	-3.706354
Pa	9.952065	0.000000	0.000000
Pa	12.440080	-2.492131	-2.492131
Pu	8.708053	-1.246061	-3.738192
Pu	13.684092	1.246061	-1.246061
Pu	16.172107	-1.246061	-1.246061
Pu	11.196078	1.246061	-3.738192
O	3.731827	-6.198487	-6.198487
O	-1.244203	-3.770021	-8.754273
O	1.244203	-6.198487	-8.754273
O	1.243812	-3.706355	-6.262152
O	6.220242	-3.770021	-6.198487
O	1.243812	-1.277899	-8.690608
O	3.732217	-1.277899	-6.262152
O	3.732217	-3.706355	-8.690608
Pa	0.000000	-4.984254	-4.984254
Pa	2.488015	-7.476385	-7.476385
Pu	-1.244012	-6.230314	-8.722446
Pu	3.732027	-3.738193	-6.230314
Pu	6.220042	-6.230314	-6.230314
Pu	1.244012	-3.738193	-8.722446
O	8.707859	-1.214233	-6.198487
O	3.731830	1.214233	-8.754273
O	6.220235	-1.214233	-8.754273
O	6.219845	1.277898	-6.262152
O	11.196275	1.214233	-6.198487
O	6.219845	3.706354	-8.690608
O	8.708250	3.706354	-6.262152
O	8.708250	1.277898	-8.690608
Pa	4.976033	0.000000	-4.984254
Pa	7.464047	-2.492131	-7.476385
Pu	3.732020	-1.246061	-8.722446
Pu	8.708060	1.246061	-6.230314
Pu	11.196074	-1.246061	-6.230314
Pu	6.220045	1.246061	-8.722446
