40

Na	2.036045	2.036045	2.036045
O	2.036045	2.036045	0.000000
O	0.000000	2.036045	2.036045
O	2.036045	0.000000	2.036045
Tl	0.000000	0.000000	0.000000
Na	2.036045	2.036045	6.108144
O	2.036045	2.036045	4.072099
O	0.000000	2.036045	6.108144
O	2.036045	0.000000	6.108144
Tl	0.000000	0.000000	4.072099
Na	2.036045	6.108144	2.036045
O	2.036045	6.108144	0.000000
O	0.000000	6.108144	2.036045
O	2.036045	4.072099	2.036045
Tl	0.000000	4.072099	0.000000
Na	2.036045	6.108144	6.108144
O	2.036045	6.108144	4.072099
O	0.000000	6.108144	6.108144
O	2.036045	4.072099	6.108144
Tl	0.000000	4.072099	4.072099
Na	6.108144	2.036045	2.036045
O	6.108144	2.036045	0.000000
O	4.072099	2.036045	2.036045
O	6.108144	0.000000	2.036045
Tl	4.072099	0.000000	0.000000
Na	6.108144	2.036045	6.108144
O	6.108144	2.036045	4.072099
O	4.072099	2.036045	6.108144
O	6.108144	0.000000	6.108144
Tl	4.072099	0.000000	4.072099
Na	6.108144	6.108144	2.036045
O	6.108144	6.108144	0.000000
O	4.072099	6.108144	2.036045
O	6.108144	4.072099	2.036045
Tl	4.072099	4.072099	0.000000
Na	6.108144	6.108144	6.108144
O	6.108144	6.108144	4.072099
O	4.072099	6.108144	6.108144
O	6.108144	4.072099	6.108144
Tl	4.072099	4.072099	4.072099
