40

Ca	2.289172	2.289172	2.289172
K	0.000000	0.000000	0.000000
O	0.000000	2.289172	2.289172
O	2.289172	0.000000	2.289172
O	2.289172	2.289172	0.000000
Ca	2.289172	2.289172	6.867517
K	0.000000	0.000000	4.578345
O	0.000000	2.289172	6.867517
O	2.289172	0.000000	6.867517
O	2.289172	2.289172	4.578345
Ca	2.289172	6.867517	2.289172
K	0.000000	4.578345	0.000000
O	0.000000	6.867517	2.289172
O	2.289172	4.578345	2.289172
O	2.289172	6.867517	0.000000
Ca	2.289172	6.867517	6.867517
K	0.000000	4.578345	4.578345
O	0.000000	6.867517	6.867517
O	2.289172	4.578345	6.867517
O	2.289172	6.867517	4.578345
Ca	6.867517	2.289172	2.289172
K	4.578345	0.000000	0.000000
O	4.578345	2.289172	2.289172
O	6.867517	0.000000	2.289172
O	6.867517	2.289172	0.000000
Ca	6.867517	2.289172	6.867517
K	4.578345	0.000000	4.578345
O	4.578345	2.289172	6.867517
O	6.867517	0.000000	6.867517
O	6.867517	2.289172	4.578345
Ca	6.867517	6.867517	2.289172
K	4.578345	4.578345	0.000000
O	4.578345	6.867517	2.289172
O	6.867517	4.578345	2.289172
O	6.867517	6.867517	0.000000
Ca	6.867517	6.867517	6.867517
K	4.578345	4.578345	4.578345
O	4.578345	6.867517	6.867517
O	6.867517	4.578345	6.867517
O	6.867517	6.867517	4.578345
