40

Hf	0.000000	0.000000	0.000000
Mo	2.002137	2.002137	2.002137
O	0.000000	2.002137	2.002137
O	2.002137	0.000000	2.002137
O	2.002137	2.002137	0.000000
Hf	0.000000	0.000000	4.004274
Mo	2.002137	2.002137	6.006411
O	0.000000	2.002137	6.006411
O	2.002137	0.000000	6.006411
O	2.002137	2.002137	4.004274
Hf	0.000000	4.004274	0.000000
Mo	2.002137	6.006411	2.002137
O	0.000000	6.006411	2.002137
O	2.002137	4.004274	2.002137
O	2.002137	6.006411	0.000000
Hf	0.000000	4.004274	4.004274
Mo	2.002137	6.006411	6.006411
O	0.000000	6.006411	6.006411
O	2.002137	4.004274	6.006411
O	2.002137	6.006411	4.004274
Hf	4.004274	0.000000	0.000000
Mo	6.006411	2.002137	2.002137
O	4.004274	2.002137	2.002137
O	6.006411	0.000000	2.002137
O	6.006411	2.002137	0.000000
Hf	4.004274	0.000000	4.004274
Mo	6.006411	2.002137	6.006411
O	4.004274	2.002137	6.006411
O	6.006411	0.000000	6.006411
O	6.006411	2.002137	4.004274
Hf	4.004274	4.004274	0.000000
Mo	6.006411	6.006411	2.002137
O	4.004274	6.006411	2.002137
O	6.006411	4.004274	2.002137
O	6.006411	6.006411	0.000000
Hf	4.004274	4.004274	4.004274
Mo	6.006411	6.006411	6.006411
O	4.004274	6.006411	6.006411
O	6.006411	4.004274	6.006411
O	6.006411	6.006411	4.004274
