112

Bi	0.000000	0.000000	0.000000
Bi	2.635562	-2.636004	-2.636004
O	4.274624	-0.995931	-0.995931
O	-0.996500	0.995931	-4.276077
O	0.996500	-0.995931	-4.276077
O	1.639062	1.640073	-1.640073
O	6.267625	0.995931	-0.995931
O	1.639062	3.631935	-3.631935
O	3.632062	3.631935	-1.640073
O	3.632062	1.640073	-3.631935
Th	-1.317781	-1.318002	-3.954006
Th	3.953343	1.318002	-1.318002
Th	6.588905	-1.318002	-1.318002
Th	1.317781	1.318002	-3.954006
Bi	5.271124	5.272008	0.000000
Bi	7.906686	2.636004	-2.636004
O	9.545748	4.276077	-0.995931
O	4.274624	6.267939	-4.276077
O	6.267625	4.276077	-4.276077
O	6.910186	6.912081	-1.640073
O	11.538749	6.267939	-0.995931
O	6.910186	8.903943	-3.631935
O	8.903187	8.903943	-1.640073
O	8.903187	6.912081	-3.631935
Th	3.953343	3.954006	-3.954006
Th	9.224467	6.590010	-1.318002
Th	11.860029	3.954006	-1.318002
Th	6.588905	6.590010	-3.954006
Bi	-5.271124	0.000000	-5.272008
Bi	-2.635562	-2.636004	-7.908012
O	-0.996500	-0.995931	-6.267939
O	-6.267625	0.995931	-9.548085
O	-4.274624	-0.995931	-9.548085
O	-3.632062	1.640073	-6.912081
O	0.996500	0.995931	-6.267939
O	-3.632062	3.631935	-8.903943
O	-1.639062	3.631935	-6.912081
O	-1.639062	1.640073	-8.903943
Th	-6.588905	-1.318002	-9.226014
Th	-1.317781	1.318002	-6.590010
Th	1.317781	-1.318002	-6.590010
Th	-3.953343	1.318002	-9.226014
Bi	0.000000	5.272008	-5.272008
Bi	2.635562	2.636004	-7.908012
O	4.274624	4.276077	-6.267939
O	-0.996500	6.267939	-9.548085
O	0.996500	4.276077	-9.548085
O	1.639062	6.912081	-6.912081
O	6.267625	6.267939	-6.267939
O	1.639062	8.903943	-8.903943
O	3.632062	8.903943	-6.912081
O	3.632062	6.912081	-8.903943
Th	-1.317781	3.954006	-9.226014
Th	3.953343	6.590010	-6.590010
Th	6.588905	3.954006	-6.590010
Th	1.317781	6.590010	-9.226014
Bi	5.271124	-5.272008	0.000000
Bi	7.906686	-7.908012	-2.636004
O	9.545748	-6.267939	-0.995931
O	4.274624	-4.276077	-4.276077
O	6.267625	-6.267939	-4.276077
O	6.910186	-3.631935	-1.640073
O	11.538749	-4.276077	-0.995931
O	6.910186	-1.640073	-3.631935
O	8.903187	-1.640073	-1.640073
O	8.903187	-3.631935	-3.631935
Th	3.953343	-6.590010	-3.954006
Th	9.224467	-3.954006	-1.318002
Th	11.860029	-6.590010	-1.318002
Th	6.588905	-3.954006	-3.954006
Bi	10.542248	0.000000	0.000000
Bi	13.177810	-2.636004	-2.636004
O	14.816872	-0.995931	-0.995931
O	9.545748	0.995931	-4.276077
O	11.538749	-0.995931	-4.276077
O	12.181310	1.640073	-1.640073
O	16.809873	0.995931	-0.995931
O	12.181310	3.631935	-3.631935
O	14.174311	3.631935	-1.640073
O	14.174311	1.640073	-3.631935
Th	9.224467	-1.318002	-3.954006
Th	14.495591	1.318002	-1.318002
Th	17.131154	-1.318002	-1.318002
Th	11.860029	1.318002	-3.954006
Bi	0.000000	-5.272008	-5.272008
Bi	2.635562	-7.908012	-7.908012
O	4.274624	-6.267939	-6.267939
O	-0.996500	-4.276077	-9.548085
O	0.996500	-6.267939	-9.548085
O	1.639062	-3.631935	-6.912081
O	6.267625	-4.276077	-6.267939
O	1.639062	-1.640073	-8.903943
O	3.632062	-1.640073	-6.912081
O	3.632062	-3.631935	-8.903943
Th	-1.317781	-6.590010	-9.226014
Th	3.953343	-3.954006	-6.590010
Th	6.588905	-6.590010	-6.590010
Th	1.317781	-3.954006	-9.226014
Bi	5.271124	0.000000	-5.272008
Bi	7.906686	-2.636004	-7.908012
O	9.545748	-0.995931	-6.267939
O	4.274624	0.995931	-9.548085
O	6.267625	-0.995931	-9.548085
O	6.910186	1.640073	-6.912081
O	11.538749	0.995931	-6.267939
O	6.910186	3.631935	-8.903943
O	8.903187	3.631935	-6.912081
O	8.903187	1.640073	-8.903943
Th	3.953343	-1.318002	-9.226014
Th	9.224467	1.318002	-6.590010
Th	11.860029	-1.318002	-6.590010
Th	6.588905	1.318002	-9.226014
