40

Cl	1.939724	1.939724	1.939724
O	0.000000	1.939724	1.939724
O	1.939724	0.000000	1.939724
O	1.939724	1.939724	0.000000
Ti	0.000000	0.000000	0.000000
Cl	1.939724	1.939724	5.819173
O	0.000000	1.939724	5.819173
O	1.939724	0.000000	5.819173
O	1.939724	1.939724	3.879449
Ti	0.000000	0.000000	3.879449
Cl	1.939724	5.819173	1.939724
O	0.000000	5.819173	1.939724
O	1.939724	3.879449	1.939724
O	1.939724	5.819173	0.000000
Ti	0.000000	3.879449	0.000000
Cl	1.939724	5.819173	5.819173
O	0.000000	5.819173	5.819173
O	1.939724	3.879449	5.819173
O	1.939724	5.819173	3.879449
Ti	0.000000	3.879449	3.879449
Cl	5.819173	1.939724	1.939724
O	3.879449	1.939724	1.939724
O	5.819173	0.000000	1.939724
O	5.819173	1.939724	0.000000
Ti	3.879449	0.000000	0.000000
Cl	5.819173	1.939724	5.819173
O	3.879449	1.939724	5.819173
O	5.819173	0.000000	5.819173
O	5.819173	1.939724	3.879449
Ti	3.879449	0.000000	3.879449
Cl	5.819173	5.819173	1.939724
O	3.879449	5.819173	1.939724
O	5.819173	3.879449	1.939724
O	5.819173	5.819173	0.000000
Ti	3.879449	3.879449	0.000000
Cl	5.819173	5.819173	5.819173
O	3.879449	5.819173	5.819173
O	5.819173	3.879449	5.819173
O	5.819173	5.819173	3.879449
Ti	3.879449	3.879449	3.879449
