40

Li	0.000000	0.000000	0.000000
O	1.952644	1.952644	0.000000
O	1.952644	0.000000	1.952644
O	0.000000	1.952644	1.952644
W	1.952644	1.952644	1.952644
Li	0.000000	0.000000	3.905289
O	1.952644	1.952644	3.905289
O	1.952644	0.000000	5.857933
O	0.000000	1.952644	5.857933
W	1.952644	1.952644	5.857933
Li	0.000000	3.905289	0.000000
O	1.952644	5.857933	0.000000
O	1.952644	3.905289	1.952644
O	0.000000	5.857933	1.952644
W	1.952644	5.857933	1.952644
Li	0.000000	3.905289	3.905289
O	1.952644	5.857933	3.905289
O	1.952644	3.905289	5.857933
O	0.000000	5.857933	5.857933
W	1.952644	5.857933	5.857933
Li	3.905289	0.000000	0.000000
O	5.857933	1.952644	0.000000
O	5.857933	0.000000	1.952644
O	3.905289	1.952644	1.952644
W	5.857933	1.952644	1.952644
Li	3.905289	0.000000	3.905289
O	5.857933	1.952644	3.905289
O	5.857933	0.000000	5.857933
O	3.905289	1.952644	5.857933
W	5.857933	1.952644	5.857933
Li	3.905289	3.905289	0.000000
O	5.857933	5.857933	0.000000
O	5.857933	3.905289	1.952644
O	3.905289	5.857933	1.952644
W	5.857933	5.857933	1.952644
Li	3.905289	3.905289	3.905289
O	5.857933	5.857933	3.905289
O	5.857933	3.905289	5.857933
O	3.905289	5.857933	5.857933
W	5.857933	5.857933	5.857933
