112

As	0.000000	0.000000	0.000000
As	2.542515	-2.542526	-2.542526
Ba	-1.271257	-1.271263	-3.813789
Ba	3.813772	1.271263	-1.271263
Ba	6.356287	-1.271263	-1.271263
Ba	1.271257	1.271263	-3.813789
O	3.552088	-1.532858	-1.532858
O	-1.532941	1.532858	-3.552195
O	1.532941	-1.532858	-3.552195
O	1.009574	1.009668	-1.009668
O	6.617971	1.532858	-1.532858
O	1.009574	4.075384	-4.075384
O	4.075456	4.075384	-1.009668
O	4.075456	1.009668	-4.075384
As	5.085030	5.085052	0.000000
As	7.627544	2.542526	-2.542526
Ba	3.813772	3.813789	-3.813789
Ba	8.898802	6.356315	-1.271263
Ba	11.441317	3.813789	-1.271263
Ba	6.356287	6.356315	-3.813789
O	8.637118	3.552195	-1.532858
O	3.552089	6.617910	-3.552195
O	6.617971	3.552195	-3.552195
O	6.094603	6.094721	-1.009668
O	11.703000	6.617910	-1.532858
O	6.094603	9.160436	-4.075384
O	9.160485	9.160436	-1.009668
O	9.160485	6.094721	-4.075384
As	-5.085030	0.000000	-5.085052
As	-2.542515	-2.542526	-7.627579
Ba	-6.356287	-1.271263	-8.898842
Ba	-1.271257	1.271263	-6.356315
Ba	1.271257	-1.271263	-6.356315
Ba	-3.813772	1.271263	-8.898842
O	-1.532941	-1.532858	-6.617910
O	-6.617971	1.532858	-8.637247
O	-3.552088	-1.532858	-8.637247
O	-4.075456	1.009668	-6.094721
O	1.532941	1.532858	-6.617910
O	-4.075456	4.075384	-9.160436
O	-1.009574	4.075384	-6.094721
O	-1.009574	1.009668	-9.160436
As	0.000000	5.085052	-5.085052
As	2.542515	2.542526	-7.627579
Ba	-1.271257	3.813789	-8.898842
Ba	3.813772	6.356315	-6.356315
Ba	6.356287	3.813789	-6.356315
Ba	1.271257	6.356315	-8.898842
O	3.552088	3.552195	-6.617910
O	-1.532941	6.617910	-8.637247
O	1.532941	3.552195	-8.637247
O	1.009574	6.094721	-6.094721
O	6.617971	6.617910	-6.617910
O	1.009574	9.160436	-9.160436
O	4.075456	9.160436	-6.094721
O	4.075456	6.094721	-9.160436
As	5.085030	-5.085052	0.000000
As	7.627544	-7.627579	-2.542526
Ba	3.813772	-6.356315	-3.813789
Ba	8.898802	-3.813789	-1.271263
Ba	11.441317	-6.356315	-1.271263
Ba	6.356287	-3.813789	-3.813789
O	8.637118	-6.617910	-1.532858
O	3.552089	-3.552195	-3.552195
O	6.617971	-6.617910	-3.552195
O	6.094603	-4.075384	-1.009668
O	11.703000	-3.552195	-1.532858
O	6.094603	-1.009668	-4.075384
O	9.160485	-1.009668	-1.009668
O	9.160485	-4.075384	-4.075384
As	10.170059	0.000000	0.000000
As	12.712574	-2.542526	-2.542526
Ba	8.898802	-1.271263	-3.813789
Ba	13.983831	1.271263	-1.271263
Ba	16.526346	-1.271263	-1.271263
Ba	11.441317	1.271263	-3.813789
O	13.722148	-1.532858	-1.532858
O	8.637118	1.532858	-3.552195
O	11.703000	-1.532858	-3.552195
O	11.179633	1.009668	-1.009668
O	16.788030	1.532858	-1.532858
O	11.179633	4.075384	-4.075384
O	14.245515	4.075384	-1.009668
O	14.245515	1.009668	-4.075384
As	0.000000	-5.085052	-5.085052
As	2.542515	-7.627579	-7.627579
Ba	-1.271257	-6.356315	-8.898842
Ba	3.813772	-3.813789	-6.356315
Ba	6.356287	-6.356315	-6.356315
Ba	1.271257	-3.813789	-8.898842
O	3.552088	-6.617910	-6.617910
O	-1.532941	-3.552195	-8.637247
O	1.532941	-6.617910	-8.637247
O	1.009574	-4.075384	-6.094721
O	6.617971	-3.552195	-6.617910
O	1.009574	-1.009668	-9.160436
O	4.075456	-1.009668	-6.094721
O	4.075456	-4.075384	-9.160436
As	5.085030	0.000000	-5.085052
As	7.627544	-2.542526	-7.627579
Ba	3.813772	-1.271263	-8.898842
Ba	8.898802	1.271263	-6.356315
Ba	11.441317	-1.271263	-6.356315
Ba	6.356287	1.271263	-8.898842
O	8.637118	-1.532858	-6.617910
O	3.552089	1.532858	-8.637247
O	6.617971	-1.532858	-8.637247
O	6.094603	1.009668	-6.094721
O	11.703000	1.532858	-6.617910
O	6.094603	4.075384	-9.160436
O	9.160485	4.075384	-6.094721
O	9.160485	1.009668	-9.160436
