40

Gd	2.153773	2.153773	2.153773
Ge	0.000000	0.000000	0.000000
O	2.153773	2.153773	0.000000
O	2.153773	0.000000	2.153773
O	0.000000	2.153773	2.153773
Gd	2.153773	2.153773	6.461328
Ge	0.000000	0.000000	4.307555
O	2.153773	2.153773	4.307555
O	2.153773	0.000000	6.461328
O	0.000000	2.153773	6.461328
Gd	2.153773	6.461328	2.153773
Ge	0.000000	4.307555	0.000000
O	2.153773	6.461328	0.000000
O	2.153773	4.307555	2.153773
O	0.000000	6.461328	2.153773
Gd	2.153773	6.461328	6.461328
Ge	0.000000	4.307555	4.307555
O	2.153773	6.461328	4.307555
O	2.153773	4.307555	6.461328
O	0.000000	6.461328	6.461328
Gd	6.461328	2.153773	2.153773
Ge	4.307555	0.000000	0.000000
O	6.461328	2.153773	0.000000
O	6.461328	0.000000	2.153773
O	4.307555	2.153773	2.153773
Gd	6.461328	2.153773	6.461328
Ge	4.307555	0.000000	4.307555
O	6.461328	2.153773	4.307555
O	6.461328	0.000000	6.461328
O	4.307555	2.153773	6.461328
Gd	6.461328	6.461328	2.153773
Ge	4.307555	4.307555	0.000000
O	6.461328	6.461328	0.000000
O	6.461328	4.307555	2.153773
O	4.307555	6.461328	2.153773
Gd	6.461328	6.461328	6.461328
Ge	4.307555	4.307555	4.307555
O	6.461328	6.461328	4.307555
O	6.461328	4.307555	6.461328
O	4.307555	6.461328	6.461328
