112

Na	0.000000	0.000000	0.000000
Na	2.439086	-2.439800	-2.439800
O	3.824524	-1.053511	-1.053511
O	-1.053649	1.053511	-3.826089
O	1.053649	-1.053511	-3.826089
O	1.385438	1.386289	-1.386289
O	5.931822	1.053511	-1.053511
O	1.385438	3.493312	-3.493312
O	3.492735	3.493312	-1.386289
O	3.492735	1.386289	-3.493312
Y	-1.219543	-1.219900	-3.659700
Y	3.658630	1.219900	-1.219900
Y	6.097716	-1.219900	-1.219900
Y	1.219543	1.219900	-3.659700
Na	4.878173	4.879600	0.000000
Na	7.317259	2.439800	-2.439800
O	8.702697	3.826089	-1.053511
O	3.824524	5.933112	-3.826089
O	5.931822	3.826089	-3.826089
O	6.263610	6.265889	-1.386289
O	10.809995	5.933112	-1.053511
O	6.263610	8.372912	-3.493312
O	8.370908	8.372912	-1.386289
O	8.370908	6.265889	-3.493312
Y	3.658630	3.659700	-3.659700
Y	8.536803	6.099500	-1.219900
Y	10.975889	3.659700	-1.219900
Y	6.097716	6.099500	-3.659700
Na	-4.878173	0.000000	-4.879600
Na	-2.439086	-2.439800	-7.319401
O	-1.053649	-1.053511	-5.933112
O	-5.931822	1.053511	-8.705689
O	-3.824524	-1.053511	-8.705689
O	-3.492735	1.386289	-6.265889
O	1.053649	1.053511	-5.933112
O	-3.492735	3.493312	-8.372912
O	-1.385438	3.493312	-6.265889
O	-1.385438	1.386289	-8.372912
Y	-6.097716	-1.219900	-8.539301
Y	-1.219543	1.219900	-6.099500
Y	1.219543	-1.219900	-6.099500
Y	-3.658630	1.219900	-8.539301
Na	0.000000	4.879600	-4.879600
Na	2.439086	2.439800	-7.319401
O	3.824524	3.826089	-5.933112
O	-1.053649	5.933112	-8.705689
O	1.053649	3.826089	-8.705689
O	1.385438	6.265889	-6.265889
O	5.931822	5.933112	-5.933112
O	1.385438	8.372912	-8.372912
O	3.492735	8.372912	-6.265889
O	3.492735	6.265889	-8.372912
Y	-1.219543	3.659700	-8.539301
Y	3.658630	6.099500	-6.099500
Y	6.097716	3.659700	-6.099500
Y	1.219543	6.099500	-8.539301
Na	4.878173	-4.879600	0.000000
Na	7.317259	-7.319401	-2.439800
O	8.702697	-5.933112	-1.053511
O	3.824524	-3.826089	-3.826089
O	5.931822	-5.933112	-3.826089
O	6.263610	-3.493312	-1.386289
O	10.809995	-3.826089	-1.053511
O	6.263610	-1.386289	-3.493312
O	8.370908	-1.386289	-1.386289
O	8.370908	-3.493312	-3.493312
Y	3.658630	-6.099500	-3.659700
Y	8.536803	-3.659700	-1.219900
Y	10.975889	-6.099500	-1.219900
Y	6.097716	-3.659700	-3.659700
Na	9.756346	0.000000	0.000000
Na	12.195432	-2.439800	-2.439800
O	13.580870	-1.053511	-1.053511
O	8.702697	1.053511	-3.826089
O	10.809995	-1.053511	-3.826089
O	11.141783	1.386289	-1.386289
O	15.688168	1.053511	-1.053511
O	11.141783	3.493312	-3.493312
O	13.249081	3.493312	-1.386289
O	13.249081	1.386289	-3.493312
Y	8.536803	-1.219900	-3.659700
Y	13.414976	1.219900	-1.219900
Y	15.854062	-1.219900	-1.219900
Y	10.975889	1.219900	-3.659700
Na	0.000000	-4.879600	-4.879600
Na	2.439086	-7.319401	-7.319401
O	3.824524	-5.933112	-5.933112
O	-1.053649	-3.826089	-8.705689
O	1.053649	-5.933112	-8.705689
O	1.385438	-3.493312	-6.265889
O	5.931822	-3.826089	-5.933112
O	1.385438	-1.386289	-8.372912
O	3.492735	-1.386289	-6.265889
O	3.492735	-3.493312	-8.372912
Y	-1.219543	-6.099500	-8.539301
Y	3.658630	-3.659700	-6.099500
Y	6.097716	-6.099500	-6.099500
Y	1.219543	-3.659700	-8.539301
Na	4.878173	0.000000	-4.879600
Na	7.317259	-2.439800	-7.319401
O	8.702697	-1.053511	-5.933112
O	3.824524	1.053511	-8.705689
O	5.931822	-1.053511	-8.705689
O	6.263610	1.386289	-6.265889
O	10.809995	1.053511	-5.933112
O	6.263610	3.493312	-8.372912
O	8.370908	3.493312	-6.265889
O	8.370908	1.386289	-8.372912
Y	3.658630	-1.219900	-8.539301
Y	8.536803	1.219900	-6.099500
Y	10.975889	-1.219900	-6.099500
Y	6.097716	1.219900	-8.539301
