40

As	0.000000	0.000000	0.000000
O	0.000000	1.913921	1.913921
O	1.913921	0.000000	1.913921
O	1.913921	1.913921	0.000000
V	1.913921	1.913921	1.913921
As	0.000000	0.000000	3.827841
O	0.000000	1.913921	5.741762
O	1.913921	0.000000	5.741762
O	1.913921	1.913921	3.827841
V	1.913921	1.913921	5.741762
As	0.000000	3.827841	0.000000
O	0.000000	5.741762	1.913921
O	1.913921	3.827841	1.913921
O	1.913921	5.741762	0.000000
V	1.913921	5.741762	1.913921
As	0.000000	3.827841	3.827841
O	0.000000	5.741762	5.741762
O	1.913921	3.827841	5.741762
O	1.913921	5.741762	3.827841
V	1.913921	5.741762	5.741762
As	3.827841	0.000000	0.000000
O	3.827841	1.913921	1.913921
O	5.741762	0.000000	1.913921
O	5.741762	1.913921	0.000000
V	5.741762	1.913921	1.913921
As	3.827841	0.000000	3.827841
O	3.827841	1.913921	5.741762
O	5.741762	0.000000	5.741762
O	5.741762	1.913921	3.827841
V	5.741762	1.913921	5.741762
As	3.827841	3.827841	0.000000
O	3.827841	5.741762	1.913921
O	5.741762	3.827841	1.913921
O	5.741762	5.741762	0.000000
V	5.741762	5.741762	1.913921
As	3.827841	3.827841	3.827841
O	3.827841	5.741762	5.741762
O	5.741762	3.827841	5.741762
O	5.741762	5.741762	3.827841
V	5.741762	5.741762	5.741762
