40

Au	0.000000	0.000000	0.000000
O	0.000000	2.245780	2.245780
O	2.245780	0.000000	2.245780
O	2.245780	2.245780	0.000000
Rb	2.245780	2.245780	2.245780
Au	0.000000	0.000000	4.491559
O	0.000000	2.245780	6.737339
O	2.245780	0.000000	6.737339
O	2.245780	2.245780	4.491559
Rb	2.245780	2.245780	6.737339
Au	0.000000	4.491559	0.000000
O	0.000000	6.737339	2.245780
O	2.245780	4.491559	2.245780
O	2.245780	6.737339	0.000000
Rb	2.245780	6.737339	2.245780
Au	0.000000	4.491559	4.491559
O	0.000000	6.737339	6.737339
O	2.245780	4.491559	6.737339
O	2.245780	6.737339	4.491559
Rb	2.245780	6.737339	6.737339
Au	4.491559	0.000000	0.000000
O	4.491559	2.245780	2.245780
O	6.737339	0.000000	2.245780
O	6.737339	2.245780	0.000000
Rb	6.737339	2.245780	2.245780
Au	4.491559	0.000000	4.491559
O	4.491559	2.245780	6.737339
O	6.737339	0.000000	6.737339
O	6.737339	2.245780	4.491559
Rb	6.737339	2.245780	6.737339
Au	4.491559	4.491559	0.000000
O	4.491559	6.737339	2.245780
O	6.737339	4.491559	2.245780
O	6.737339	6.737339	0.000000
Rb	6.737339	6.737339	2.245780
Au	4.491559	4.491559	4.491559
O	4.491559	6.737339	6.737339
O	6.737339	4.491559	6.737339
O	6.737339	6.737339	4.491559
Rb	6.737339	6.737339	6.737339
