112

Ac	0.000000	0.000000	0.000000
Ac	2.407542	-2.407020	-2.407020
Ag	-1.203771	-1.203510	-3.610531
Ag	3.611312	1.203510	-1.203510
Ag	6.018854	-1.203510	-1.203510
Ag	1.203771	1.203510	-3.610531
O	3.765383	-1.048299	-1.048299
O	-1.049700	1.048299	-3.765742
O	1.049700	-1.048299	-3.765742
O	1.357842	1.358721	-1.358721
O	5.864783	1.048299	-1.048299
O	1.357842	3.455320	-3.455320
O	3.457242	3.455320	-1.358721
O	3.457242	1.358721	-3.455320
Ac	4.815083	4.814041	0.000000
Ac	7.222625	2.407020	-2.407020
Ag	3.611312	3.610531	-3.610531
Ag	8.426396	6.017551	-1.203510
Ag	10.833937	3.610531	-1.203510
Ag	6.018854	6.017551	-3.610531
O	8.580467	3.765742	-1.048299
O	3.765383	5.862340	-3.765742
O	5.864783	3.765742	-3.765742
O	6.172925	6.172762	-1.358721
O	10.679866	5.862340	-1.048299
O	6.172925	8.269361	-3.455320
O	8.272325	8.269361	-1.358721
O	8.272325	6.172762	-3.455320
Ac	-4.815083	0.000000	-4.814041
Ac	-2.407542	-2.407020	-7.221061
Ag	-6.018854	-1.203510	-8.424571
Ag	-1.203771	1.203510	-6.017551
Ag	1.203771	-1.203510	-6.017551
Ag	-3.611312	1.203510	-8.424571
O	-1.049700	-1.048299	-5.862340
O	-5.864783	1.048299	-8.579782
O	-3.765383	-1.048299	-8.579782
O	-3.457242	1.358721	-6.172762
O	1.049700	1.048299	-5.862340
O	-3.457242	3.455320	-8.269361
O	-1.357842	3.455320	-6.172762
O	-1.357842	1.358721	-8.269361
Ac	0.000000	4.814041	-4.814041
Ac	2.407542	2.407020	-7.221061
Ag	-1.203771	3.610531	-8.424571
Ag	3.611312	6.017551	-6.017551
Ag	6.018854	3.610531	-6.017551
Ag	1.203771	6.017551	-8.424571
O	3.765383	3.765742	-5.862340
O	-1.049700	5.862340	-8.579782
O	1.049700	3.765742	-8.579782
O	1.357842	6.172762	-6.172762
O	5.864783	5.862340	-5.862340
O	1.357842	8.269361	-8.269361
O	3.457242	8.269361	-6.172762
O	3.457242	6.172762	-8.269361
Ac	4.815083	-4.814041	0.000000
Ac	7.222625	-7.221061	-2.407020
Ag	3.611312	-6.017551	-3.610531
Ag	8.426396	-3.610531	-1.203510
Ag	10.833937	-6.017551	-1.203510
Ag	6.018854	-3.610531	-3.610531
O	8.580467	-5.862340	-1.048299
O	3.765383	-3.765742	-3.765742
O	5.864783	-5.862340	-3.765742
O	6.172925	-3.455320	-1.358721
O	10.679866	-3.765742	-1.048299
O	6.172925	-1.358721	-3.455320
O	8.272325	-1.358721	-1.358721
O	8.272325	-3.455320	-3.455320
Ac	9.630166	0.000000	0.000000
Ac	12.037708	-2.407020	-2.407020
Ag	8.426396	-1.203510	-3.610531
Ag	13.241479	1.203510	-1.203510
Ag	15.649021	-1.203510	-1.203510
Ag	10.833937	1.203510	-3.610531
O	13.395550	-1.048299	-1.048299
O	8.580467	1.048299	-3.765742
O	10.679866	-1.048299	-3.765742
O	10.988008	1.358721	-1.358721
O	15.494950	1.048299	-1.048299
O	10.988008	3.455320	-3.455320
O	13.087408	3.455320	-1.358721
O	13.087408	1.358721	-3.455320
Ac	0.000000	-4.814041	-4.814041
Ac	2.407542	-7.221061	-7.221061
Ag	-1.203771	-6.017551	-8.424571
Ag	3.611312	-3.610531	-6.017551
Ag	6.018854	-6.017551	-6.017551
Ag	1.203771	-3.610531	-8.424571
O	3.765383	-5.862340	-5.862340
O	-1.049700	-3.765742	-8.579782
O	1.049700	-5.862340	-8.579782
O	1.357842	-3.455320	-6.172762
O	5.864783	-3.765742	-5.862340
O	1.357842	-1.358721	-8.269361
O	3.457242	-1.358721	-6.172762
O	3.457242	-3.455320	-8.269361
Ac	4.815083	0.000000	-4.814041
Ac	7.222625	-2.407020	-7.221061
Ag	3.611312	-1.203510	-8.424571
Ag	8.426396	1.203510	-6.017551
Ag	10.833937	-1.203510	-6.017551
Ag	6.018854	1.203510	-8.424571
O	8.580467	-1.048299	-5.862340
O	3.765383	1.048299	-8.579782
O	5.864783	-1.048299	-8.579782
O	6.172925	1.358721	-6.172762
O	10.679866	1.048299	-5.862340
O	6.172925	3.455320	-8.269361
O	8.272325	3.455320	-6.172762
O	8.272325	1.358721	-8.269361
