40

O	0.000000	2.025965	2.025965
O	2.025965	0.000000	2.025965
O	2.025965	2.025965	0.000000
Sb	2.025965	2.025965	2.025965
Se	0.000000	0.000000	0.000000
O	0.000000	2.025965	6.077895
O	2.025965	0.000000	6.077895
O	2.025965	2.025965	4.051930
Sb	2.025965	2.025965	6.077895
Se	0.000000	0.000000	4.051930
O	0.000000	6.077895	2.025965
O	2.025965	4.051930	2.025965
O	2.025965	6.077895	0.000000
Sb	2.025965	6.077895	2.025965
Se	0.000000	4.051930	0.000000
O	0.000000	6.077895	6.077895
O	2.025965	4.051930	6.077895
O	2.025965	6.077895	4.051930
Sb	2.025965	6.077895	6.077895
Se	0.000000	4.051930	4.051930
O	4.051930	2.025965	2.025965
O	6.077895	0.000000	2.025965
O	6.077895	2.025965	0.000000
Sb	6.077895	2.025965	2.025965
Se	4.051930	0.000000	0.000000
O	4.051930	2.025965	6.077895
O	6.077895	0.000000	6.077895
O	6.077895	2.025965	4.051930
Sb	6.077895	2.025965	6.077895
Se	4.051930	0.000000	4.051930
O	4.051930	6.077895	2.025965
O	6.077895	4.051930	2.025965
O	6.077895	6.077895	0.000000
Sb	6.077895	6.077895	2.025965
Se	4.051930	4.051930	0.000000
O	4.051930	6.077895	6.077895
O	6.077895	4.051930	6.077895
O	6.077895	6.077895	4.051930
Sb	6.077895	6.077895	6.077895
Se	4.051930	4.051930	4.051930
