40

K	2.066156	2.066156	2.066156
O	2.066156	2.066156	0.000000
O	2.066156	0.000000	2.066156
O	0.000000	2.066156	2.066156
Zr	0.000000	0.000000	0.000000
K	2.066156	2.066156	6.198479
O	2.066156	2.066156	4.132323
O	2.066156	0.000000	6.198479
O	0.000000	2.066156	6.198479
Zr	0.000000	0.000000	4.132323
K	2.066156	6.198479	2.066156
O	2.066156	6.198479	0.000000
O	2.066156	4.132323	2.066156
O	0.000000	6.198479	2.066156
Zr	0.000000	4.132323	0.000000
K	2.066156	6.198479	6.198479
O	2.066156	6.198479	4.132323
O	2.066156	4.132323	6.198479
O	0.000000	6.198479	6.198479
Zr	0.000000	4.132323	4.132323
K	6.198479	2.066156	2.066156
O	6.198479	2.066156	0.000000
O	6.198479	0.000000	2.066156
O	4.132323	2.066156	2.066156
Zr	4.132323	0.000000	0.000000
K	6.198479	2.066156	6.198479
O	6.198479	2.066156	4.132323
O	6.198479	0.000000	6.198479
O	4.132323	2.066156	6.198479
Zr	4.132323	0.000000	4.132323
K	6.198479	6.198479	2.066156
O	6.198479	6.198479	0.000000
O	6.198479	4.132323	2.066156
O	4.132323	6.198479	2.066156
Zr	4.132323	4.132323	0.000000
K	6.198479	6.198479	6.198479
O	6.198479	6.198479	4.132323
O	6.198479	4.132323	6.198479
O	4.132323	6.198479	6.198479
Zr	4.132323	4.132323	4.132323
