40

O	1.991916	1.991916	0.000000
O	1.991916	0.000000	1.991916
O	0.000000	1.991916	1.991916
Rb	0.000000	0.000000	0.000000
Ru	1.991916	1.991916	1.991916
O	1.991916	1.991916	3.983836
O	1.991916	0.000000	5.975753
O	0.000000	1.991916	5.975753
Rb	0.000000	0.000000	3.983836
Ru	1.991916	1.991916	5.975753
O	1.991916	5.975753	0.000000
O	1.991916	3.983836	1.991916
O	0.000000	5.975753	1.991916
Rb	0.000000	3.983836	0.000000
Ru	1.991916	5.975753	1.991916
O	1.991916	5.975753	3.983836
O	1.991916	3.983836	5.975753
O	0.000000	5.975753	5.975753
Rb	0.000000	3.983836	3.983836
Ru	1.991916	5.975753	5.975753
O	5.975753	1.991916	0.000000
O	5.975753	0.000000	1.991916
O	3.983836	1.991916	1.991916
Rb	3.983836	0.000000	0.000000
Ru	5.975753	1.991916	1.991916
O	5.975753	1.991916	3.983836
O	5.975753	0.000000	5.975753
O	3.983836	1.991916	5.975753
Rb	3.983836	0.000000	3.983836
Ru	5.975753	1.991916	5.975753
O	5.975753	5.975753	0.000000
O	5.975753	3.983836	1.991916
O	3.983836	5.975753	1.991916
Rb	3.983836	3.983836	0.000000
Ru	5.975753	5.975753	1.991916
O	5.975753	5.975753	3.983836
O	5.975753	3.983836	5.975753
O	3.983836	5.975753	5.975753
Rb	3.983836	3.983836	3.983836
Ru	5.975753	5.975753	5.975753
