40

O	0.000000	1.992277	1.992277
O	1.992277	0.000000	1.992277
O	1.992277	1.992277	0.000000
Rb	0.000000	0.000000	0.000000
Ru	1.992277	1.992277	1.992277
O	0.000000	1.992277	5.976832
O	1.992277	0.000000	5.976832
O	1.992277	1.992277	3.984555
Rb	0.000000	0.000000	3.984555
Ru	1.992277	1.992277	5.976832
O	0.000000	5.976832	1.992277
O	1.992277	3.984555	1.992277
O	1.992277	5.976832	0.000000
Rb	0.000000	3.984555	0.000000
Ru	1.992277	5.976832	1.992277
O	0.000000	5.976832	5.976832
O	1.992277	3.984555	5.976832
O	1.992277	5.976832	3.984555
Rb	0.000000	3.984555	3.984555
Ru	1.992277	5.976832	5.976832
O	3.984555	1.992277	1.992277
O	5.976832	0.000000	1.992277
O	5.976832	1.992277	0.000000
Rb	3.984555	0.000000	0.000000
Ru	5.976832	1.992277	1.992277
O	3.984555	1.992277	5.976832
O	5.976832	0.000000	5.976832
O	5.976832	1.992277	3.984555
Rb	3.984555	0.000000	3.984555
Ru	5.976832	1.992277	5.976832
O	3.984555	5.976832	1.992277
O	5.976832	3.984555	1.992277
O	5.976832	5.976832	0.000000
Rb	3.984555	3.984555	0.000000
Ru	5.976832	5.976832	1.992277
O	3.984555	5.976832	5.976832
O	5.976832	3.984555	5.976832
O	5.976832	5.976832	3.984555
Rb	3.984555	3.984555	3.984555
Ru	5.976832	5.976832	5.976832
