40

Cr	1.940730	1.940730	1.940730
Np	0.000000	0.000000	0.000000
O	1.940730	1.940730	0.000000
O	0.000000	1.940730	1.940730
O	1.940730	0.000000	1.940730
Cr	1.940730	1.940730	5.822183
Np	0.000000	0.000000	3.881453
O	1.940730	1.940730	3.881453
O	0.000000	1.940730	5.822183
O	1.940730	0.000000	5.822183
Cr	1.940730	5.822183	1.940730
Np	0.000000	3.881453	0.000000
O	1.940730	5.822183	0.000000
O	0.000000	5.822183	1.940730
O	1.940730	3.881453	1.940730
Cr	1.940730	5.822183	5.822183
Np	0.000000	3.881453	3.881453
O	1.940730	5.822183	3.881453
O	0.000000	5.822183	5.822183
O	1.940730	3.881453	5.822183
Cr	5.822183	1.940730	1.940730
Np	3.881453	0.000000	0.000000
O	5.822183	1.940730	0.000000
O	3.881453	1.940730	1.940730
O	5.822183	0.000000	1.940730
Cr	5.822183	1.940730	5.822183
Np	3.881453	0.000000	3.881453
O	5.822183	1.940730	3.881453
O	3.881453	1.940730	5.822183
O	5.822183	0.000000	5.822183
Cr	5.822183	5.822183	1.940730
Np	3.881453	3.881453	0.000000
O	5.822183	5.822183	0.000000
O	3.881453	5.822183	1.940730
O	5.822183	3.881453	1.940730
Cr	5.822183	5.822183	5.822183
Np	3.881453	3.881453	3.881453
O	5.822183	5.822183	3.881453
O	3.881453	5.822183	5.822183
O	5.822183	3.881453	5.822183
