40

Ge	1.887233	1.887233	1.887233
Na	0.000000	0.000000	0.000000
O	0.000000	1.887233	1.887233
O	1.887233	0.000000	1.887233
O	1.887233	1.887233	0.000000
Ge	1.887233	1.887233	5.661699
Na	0.000000	0.000000	3.774466
O	0.000000	1.887233	5.661699
O	1.887233	0.000000	5.661699
O	1.887233	1.887233	3.774466
Ge	1.887233	5.661699	1.887233
Na	0.000000	3.774466	0.000000
O	0.000000	5.661699	1.887233
O	1.887233	3.774466	1.887233
O	1.887233	5.661699	0.000000
Ge	1.887233	5.661699	5.661699
Na	0.000000	3.774466	3.774466
O	0.000000	5.661699	5.661699
O	1.887233	3.774466	5.661699
O	1.887233	5.661699	3.774466
Ge	5.661699	1.887233	1.887233
Na	3.774466	0.000000	0.000000
O	3.774466	1.887233	1.887233
O	5.661699	0.000000	1.887233
O	5.661699	1.887233	0.000000
Ge	5.661699	1.887233	5.661699
Na	3.774466	0.000000	3.774466
O	3.774466	1.887233	5.661699
O	5.661699	0.000000	5.661699
O	5.661699	1.887233	3.774466
Ge	5.661699	5.661699	1.887233
Na	3.774466	3.774466	0.000000
O	3.774466	5.661699	1.887233
O	5.661699	3.774466	1.887233
O	5.661699	5.661699	0.000000
Ge	5.661699	5.661699	5.661699
Na	3.774466	3.774466	3.774466
O	3.774466	5.661699	5.661699
O	5.661699	3.774466	5.661699
O	5.661699	5.661699	3.774466
