40

O	2.220262	2.220262	0.000000
O	2.220262	0.000000	2.220262
O	0.000000	2.220262	2.220262
Rb	2.220262	2.220262	2.220262
Sb	0.000000	0.000000	0.000000
O	2.220262	2.220262	4.440523
O	2.220262	0.000000	6.660785
O	0.000000	2.220262	6.660785
Rb	2.220262	2.220262	6.660785
Sb	0.000000	0.000000	4.440523
O	2.220262	6.660785	0.000000
O	2.220262	4.440523	2.220262
O	0.000000	6.660785	2.220262
Rb	2.220262	6.660785	2.220262
Sb	0.000000	4.440523	0.000000
O	2.220262	6.660785	4.440523
O	2.220262	4.440523	6.660785
O	0.000000	6.660785	6.660785
Rb	2.220262	6.660785	6.660785
Sb	0.000000	4.440523	4.440523
O	6.660785	2.220262	0.000000
O	6.660785	0.000000	2.220262
O	4.440523	2.220262	2.220262
Rb	6.660785	2.220262	2.220262
Sb	4.440523	0.000000	0.000000
O	6.660785	2.220262	4.440523
O	6.660785	0.000000	6.660785
O	4.440523	2.220262	6.660785
Rb	6.660785	2.220262	6.660785
Sb	4.440523	0.000000	4.440523
O	6.660785	6.660785	0.000000
O	6.660785	4.440523	2.220262
O	4.440523	6.660785	2.220262
Rb	6.660785	6.660785	2.220262
Sb	4.440523	4.440523	0.000000
O	6.660785	6.660785	4.440523
O	6.660785	4.440523	6.660785
O	4.440523	6.660785	6.660785
Rb	6.660785	6.660785	6.660785
Sb	4.440523	4.440523	4.440523
