40

Dy	0.000000	0.000000	0.000000
Hg	2.090220	2.090220	2.090220
O	2.090220	0.000000	2.090220
O	0.000000	2.090220	2.090220
O	2.090220	2.090220	0.000000
Dy	0.000000	0.000000	4.180426
Hg	2.090220	2.090220	6.270646
O	2.090220	0.000000	6.270646
O	0.000000	2.090220	6.270646
O	2.090220	2.090220	4.180426
Dy	0.000000	4.180426	0.000000
Hg	2.090220	6.270646	2.090220
O	2.090220	4.180426	2.090220
O	0.000000	6.270646	2.090220
O	2.090220	6.270646	0.000000
Dy	0.000000	4.180426	4.180426
Hg	2.090220	6.270646	6.270646
O	2.090220	4.180426	6.270646
O	0.000000	6.270646	6.270646
O	2.090220	6.270646	4.180426
Dy	4.180426	0.000000	0.000000
Hg	6.270646	2.090220	2.090220
O	6.270646	0.000000	2.090220
O	4.180426	2.090220	2.090220
O	6.270646	2.090220	0.000000
Dy	4.180426	0.000000	4.180426
Hg	6.270646	2.090220	6.270646
O	6.270646	0.000000	6.270646
O	4.180426	2.090220	6.270646
O	6.270646	2.090220	4.180426
Dy	4.180426	4.180426	0.000000
Hg	6.270646	6.270646	2.090220
O	6.270646	4.180426	2.090220
O	4.180426	6.270646	2.090220
O	6.270646	6.270646	0.000000
Dy	4.180426	4.180426	4.180426
Hg	6.270646	6.270646	6.270646
O	6.270646	4.180426	6.270646
O	4.180426	6.270646	6.270646
O	6.270646	6.270646	4.180426
