112

Hg	0.000000	0.000000	0.000000
Hg	2.420422	-2.420785	-2.420785
O	3.746292	-1.094093	-1.094093
O	-1.094551	1.094093	-3.747477
O	1.094551	-1.094093	-3.747477
O	1.325870	1.326692	-1.326692
O	5.935395	1.094093	-1.094093
O	1.325870	3.514878	-3.514878
O	3.514973	3.514878	-1.326692
O	3.514973	1.326692	-3.514878
Tl	-1.210211	-1.210393	-3.631178
Tl	3.630633	1.210393	-1.210393
Tl	6.051054	-1.210393	-1.210393
Tl	1.210211	1.210393	-3.631178
Hg	4.840843	4.841570	0.000000
Hg	7.261265	2.420785	-2.420785
O	8.587135	3.747477	-1.094093
O	3.746292	5.935664	-3.747477
O	5.935395	3.747477	-3.747477
O	6.166714	6.168262	-1.326692
O	10.776238	5.935664	-1.094093
O	6.166714	8.356449	-3.514878
O	8.355816	8.356449	-1.326692
O	8.355816	6.168262	-3.514878
Tl	3.630633	3.631178	-3.631178
Tl	8.471476	6.051963	-1.210393
Tl	10.891898	3.631178	-1.210393
Tl	6.051054	6.051963	-3.631178
Hg	-4.840843	0.000000	-4.841570
Hg	-2.420422	-2.420785	-7.262355
O	-1.094551	-1.094093	-5.935664
O	-5.935395	1.094093	-8.589047
O	-3.746292	-1.094093	-8.589047
O	-3.514973	1.326692	-6.168262
O	1.094551	1.094093	-5.935664
O	-3.514973	3.514878	-8.356449
O	-1.325870	3.514878	-6.168262
O	-1.325870	1.326692	-8.356449
Tl	-6.051054	-1.210393	-8.472748
Tl	-1.210211	1.210393	-6.051963
Tl	1.210211	-1.210393	-6.051963
Tl	-3.630633	1.210393	-8.472748
Hg	0.000000	4.841570	-4.841570
Hg	2.420422	2.420785	-7.262355
O	3.746292	3.747477	-5.935664
O	-1.094551	5.935664	-8.589047
O	1.094551	3.747477	-8.589047
O	1.325870	6.168262	-6.168262
O	5.935395	5.935664	-5.935664
O	1.325870	8.356449	-8.356449
O	3.514973	8.356449	-6.168262
O	3.514973	6.168262	-8.356449
Tl	-1.210211	3.631178	-8.472748
Tl	3.630633	6.051963	-6.051963
Tl	6.051054	3.631178	-6.051963
Tl	1.210211	6.051963	-8.472748
Hg	4.840843	-4.841570	0.000000
Hg	7.261265	-7.262355	-2.420785
O	8.587135	-5.935664	-1.094093
O	3.746292	-3.747477	-3.747477
O	5.935395	-5.935664	-3.747477
O	6.166714	-3.514879	-1.326692
O	10.776238	-3.747477	-1.094093
O	6.166714	-1.326692	-3.514878
O	8.355816	-1.326692	-1.326692
O	8.355816	-3.514879	-3.514878
Tl	3.630633	-6.051963	-3.631178
Tl	8.471476	-3.631178	-1.210393
Tl	10.891898	-6.051963	-1.210393
Tl	6.051054	-3.631178	-3.631178
Hg	9.681687	0.000000	0.000000
Hg	12.102108	-2.420785	-2.420785
O	13.427979	-1.094093	-1.094093
O	8.587135	1.094093	-3.747477
O	10.776238	-1.094093	-3.747477
O	11.007557	1.326692	-1.326692
O	15.617081	1.094093	-1.094093
O	11.007557	3.514878	-3.514878
O	13.196660	3.514878	-1.326692
O	13.196660	1.326692	-3.514878
Tl	8.471476	-1.210393	-3.631178
Tl	13.312319	1.210393	-1.210393
Tl	15.732741	-1.210393	-1.210393
Tl	10.891898	1.210393	-3.631178
Hg	0.000000	-4.841570	-4.841570
Hg	2.420422	-7.262355	-7.262355
O	3.746292	-5.935664	-5.935664
O	-1.094551	-3.747477	-8.589047
O	1.094551	-5.935664	-8.589047
O	1.325870	-3.514879	-6.168262
O	5.935395	-3.747477	-5.935664
O	1.325870	-1.326692	-8.356449
O	3.514973	-1.326692	-6.168262
O	3.514973	-3.514879	-8.356449
Tl	-1.210211	-6.051963	-8.472748
Tl	3.630633	-3.631178	-6.051963
Tl	6.051054	-6.051963	-6.051963
Tl	1.210211	-3.631178	-8.472748
Hg	4.840843	0.000000	-4.841570
Hg	7.261265	-2.420785	-7.262355
O	8.587135	-1.094093	-5.935664
O	3.746292	1.094093	-8.589047
O	5.935395	-1.094093	-8.589047
O	6.166714	1.326692	-6.168262
O	10.776238	1.094093	-5.935664
O	6.166714	3.514878	-8.356449
O	8.355816	3.514878	-6.168262
O	8.355816	1.326692	-8.356449
Tl	3.630633	-1.210393	-8.472748
Tl	8.471476	1.210393	-6.051963
Tl	10.891898	-1.210393	-6.051963
Tl	6.051054	1.210393	-8.472748
