40

Mg	0.000000	0.000000	0.000000
O	1.947130	1.947130	0.000000
O	0.000000	1.947130	1.947130
O	1.947130	0.000000	1.947130
Pd	1.947130	1.947130	1.947130
Mg	0.000000	0.000000	3.894253
O	1.947130	1.947130	3.894253
O	0.000000	1.947130	5.841383
O	1.947130	0.000000	5.841383
Pd	1.947130	1.947130	5.841383
Mg	0.000000	3.894253	0.000000
O	1.947130	5.841383	0.000000
O	0.000000	5.841383	1.947130
O	1.947130	3.894253	1.947130
Pd	1.947130	5.841383	1.947130
Mg	0.000000	3.894253	3.894253
O	1.947130	5.841383	3.894253
O	0.000000	5.841383	5.841383
O	1.947130	3.894253	5.841383
Pd	1.947130	5.841383	5.841383
Mg	3.894253	0.000000	0.000000
O	5.841383	1.947130	0.000000
O	3.894253	1.947130	1.947130
O	5.841383	0.000000	1.947130
Pd	5.841383	1.947130	1.947130
Mg	3.894253	0.000000	3.894253
O	5.841383	1.947130	3.894253
O	3.894253	1.947130	5.841383
O	5.841383	0.000000	5.841383
Pd	5.841383	1.947130	5.841383
Mg	3.894253	3.894253	0.000000
O	5.841383	5.841383	0.000000
O	3.894253	5.841383	1.947130
O	5.841383	3.894253	1.947130
Pd	5.841383	5.841383	1.947130
Mg	3.894253	3.894253	3.894253
O	5.841383	5.841383	3.894253
O	3.894253	5.841383	5.841383
O	5.841383	3.894253	5.841383
Pd	5.841383	5.841383	5.841383
