112

Ce	0.000000	0.000000	0.000000
Ce	2.252520	-2.253182	-2.253182
Li	-1.126260	-1.126591	-3.379774
Li	3.378781	1.126591	-1.126591
Li	5.631301	-1.126591	-1.126591
Li	1.126260	1.126591	-3.379774
O	3.546173	-0.958149	-0.958149
O	-0.958868	0.958149	-3.548216
O	0.958868	-0.958149	-3.548216
O	1.293652	1.295033	-1.295033
O	5.463909	0.958149	-0.958149
O	1.293652	3.211331	-3.211331
O	3.211388	3.211331	-1.295033
O	3.211388	1.295033	-3.211331
Ce	4.505041	4.506365	0.000000
Ce	6.757561	2.253182	-2.253182
Li	3.378781	3.379774	-3.379774
Li	7.883821	5.632956	-1.126591
Li	10.136342	3.379774	-1.126591
Li	5.631301	5.632956	-3.379774
O	8.051214	3.548216	-0.958149
O	3.546173	5.464514	-3.548216
O	5.463909	3.548216	-3.548216
O	5.798693	5.801398	-1.295033
O	9.968950	5.464514	-0.958149
O	5.798693	7.717696	-3.211331
O	7.716429	7.717696	-1.295033
O	7.716429	5.801398	-3.211331
Ce	-4.505041	0.000000	-4.506365
Ce	-2.252520	-2.253182	-6.759547
Li	-5.631301	-1.126591	-7.886138
Li	-1.126260	1.126591	-5.632956
Li	1.126260	-1.126591	-5.632956
Li	-3.378781	1.126591	-7.886138
O	-0.958868	-0.958149	-5.464514
O	-5.463909	0.958149	-8.054581
O	-3.546173	-0.958149	-8.054581
O	-3.211388	1.295033	-5.801398
O	0.958868	0.958149	-5.464514
O	-3.211388	3.211331	-7.717696
O	-1.293652	3.211331	-5.801398
O	-1.293652	1.295033	-7.717696
Ce	0.000000	4.506365	-4.506365
Ce	2.252520	2.253182	-6.759547
Li	-1.126260	3.379774	-7.886138
Li	3.378781	5.632956	-5.632956
Li	5.631301	3.379774	-5.632956
Li	1.126260	5.632956	-7.886138
O	3.546173	3.548216	-5.464514
O	-0.958868	5.464514	-8.054581
O	0.958868	3.548216	-8.054581
O	1.293652	5.801398	-5.801398
O	5.463909	5.464514	-5.464514
O	1.293652	7.717696	-7.717696
O	3.211388	7.717696	-5.801398
O	3.211388	5.801398	-7.717696
Ce	4.505041	-4.506365	0.000000
Ce	6.757561	-6.759547	-2.253182
Li	3.378781	-5.632956	-3.379774
Li	7.883821	-3.379774	-1.126591
Li	10.136342	-5.632956	-1.126591
Li	5.631301	-3.379774	-3.379774
O	8.051214	-5.464514	-0.958149
O	3.546173	-3.548216	-3.548216
O	5.463909	-5.464514	-3.548216
O	5.798693	-3.211331	-1.295033
O	9.968950	-3.548216	-0.958149
O	5.798693	-1.295033	-3.211331
O	7.716429	-1.295033	-1.295033
O	7.716429	-3.211331	-3.211331
Ce	9.010082	0.000000	0.000000
Ce	11.262602	-2.253182	-2.253182
Li	7.883821	-1.126591	-3.379774
Li	12.388862	1.126591	-1.126591
Li	14.641382	-1.126591	-1.126591
Li	10.136342	1.126591	-3.379774
O	12.556254	-0.958149	-0.958149
O	8.051214	0.958149	-3.548216
O	9.968950	-0.958149	-3.548216
O	10.303734	1.295033	-1.295033
O	14.473990	0.958149	-0.958149
O	10.303734	3.211331	-3.211331
O	12.221470	3.211331	-1.295033
O	12.221470	1.295033	-3.211331
Ce	0.000000	-4.506365	-4.506365
Ce	2.252520	-6.759547	-6.759547
Li	-1.126260	-5.632956	-7.886138
Li	3.378781	-3.379774	-5.632956
Li	5.631301	-5.632956	-5.632956
Li	1.126260	-3.379774	-7.886138
O	3.546173	-5.464514	-5.464514
O	-0.958868	-3.548216	-8.054581
O	0.958868	-5.464514	-8.054581
O	1.293652	-3.211331	-5.801398
O	5.463909	-3.548216	-5.464514
O	1.293652	-1.295033	-7.717696
O	3.211388	-1.295033	-5.801398
O	3.211388	-3.211331	-7.717696
Ce	4.505041	0.000000	-4.506365
Ce	6.757561	-2.253182	-6.759547
Li	3.378781	-1.126591	-7.886138
Li	7.883821	1.126591	-5.632956
Li	10.136342	-1.126591	-5.632956
Li	5.631301	1.126591	-7.886138
O	8.051214	-0.958149	-5.464514
O	3.546173	0.958149	-8.054581
O	5.463909	-0.958149	-8.054581
O	5.798693	1.295033	-5.801398
O	9.968950	0.958149	-5.464514
O	5.798693	3.211331	-7.717696
O	7.716429	3.211331	-5.801398
O	7.716429	1.295033	-7.717696
