40

Er	2.104152	2.104152	2.104152
Ho	0.000000	0.000000	0.000000
O	2.104152	2.104152	0.000000
O	2.104152	0.000000	2.104152
O	0.000000	2.104152	2.104152
Er	2.104152	2.104152	6.312463
Ho	0.000000	0.000000	4.208311
O	2.104152	2.104152	4.208311
O	2.104152	0.000000	6.312463
O	0.000000	2.104152	6.312463
Er	2.104152	6.312463	2.104152
Ho	0.000000	4.208311	0.000000
O	2.104152	6.312463	0.000000
O	2.104152	4.208311	2.104152
O	0.000000	6.312463	2.104152
Er	2.104152	6.312463	6.312463
Ho	0.000000	4.208311	4.208311
O	2.104152	6.312463	4.208311
O	2.104152	4.208311	6.312463
O	0.000000	6.312463	6.312463
Er	6.312463	2.104152	2.104152
Ho	4.208311	0.000000	0.000000
O	6.312463	2.104152	0.000000
O	6.312463	0.000000	2.104152
O	4.208311	2.104152	2.104152
Er	6.312463	2.104152	6.312463
Ho	4.208311	0.000000	4.208311
O	6.312463	2.104152	4.208311
O	6.312463	0.000000	6.312463
O	4.208311	2.104152	6.312463
Er	6.312463	6.312463	2.104152
Ho	4.208311	4.208311	0.000000
O	6.312463	6.312463	0.000000
O	6.312463	4.208311	2.104152
O	4.208311	6.312463	2.104152
Er	6.312463	6.312463	6.312463
Ho	4.208311	4.208311	4.208311
O	6.312463	6.312463	4.208311
O	6.312463	4.208311	6.312463
O	4.208311	6.312463	6.312463
