40

Er	0.000000	0.000000	0.000000
Ho	2.114337	2.114337	2.114337
O	2.114337	2.114337	0.000000
O	2.114337	0.000000	2.114337
O	0.000000	2.114337	2.114337
Er	0.000000	0.000000	4.228677
Ho	2.114337	2.114337	6.343014
O	2.114337	2.114337	4.228677
O	2.114337	0.000000	6.343014
O	0.000000	2.114337	6.343014
Er	0.000000	4.228677	0.000000
Ho	2.114337	6.343014	2.114337
O	2.114337	6.343014	0.000000
O	2.114337	4.228677	2.114337
O	0.000000	6.343014	2.114337
Er	0.000000	4.228677	4.228677
Ho	2.114337	6.343014	6.343014
O	2.114337	6.343014	4.228677
O	2.114337	4.228677	6.343014
O	0.000000	6.343014	6.343014
Er	4.228677	0.000000	0.000000
Ho	6.343014	2.114337	2.114337
O	6.343014	2.114337	0.000000
O	6.343014	0.000000	2.114337
O	4.228677	2.114337	2.114337
Er	4.228677	0.000000	4.228677
Ho	6.343014	2.114337	6.343014
O	6.343014	2.114337	4.228677
O	6.343014	0.000000	6.343014
O	4.228677	2.114337	6.343014
Er	4.228677	4.228677	0.000000
Ho	6.343014	6.343014	2.114337
O	6.343014	6.343014	0.000000
O	6.343014	4.228677	2.114337
O	4.228677	6.343014	2.114337
Er	4.228677	4.228677	4.228677
Ho	6.343014	6.343014	6.343014
O	6.343014	6.343014	4.228677
O	6.343014	4.228677	6.343014
O	4.228677	6.343014	6.343014
