40

Au	2.063813	2.063813	2.063813
O	2.063813	2.063813	0.000000
O	0.000000	2.063813	2.063813
O	2.063813	0.000000	2.063813
U	0.000000	0.000000	0.000000
Au	2.063813	2.063813	6.191440
O	2.063813	2.063813	4.127627
O	0.000000	2.063813	6.191440
O	2.063813	0.000000	6.191440
U	0.000000	0.000000	4.127627
Au	2.063813	6.191440	2.063813
O	2.063813	6.191440	0.000000
O	0.000000	6.191440	2.063813
O	2.063813	4.127627	2.063813
U	0.000000	4.127627	0.000000
Au	2.063813	6.191440	6.191440
O	2.063813	6.191440	4.127627
O	0.000000	6.191440	6.191440
O	2.063813	4.127627	6.191440
U	0.000000	4.127627	4.127627
Au	6.191440	2.063813	2.063813
O	6.191440	2.063813	0.000000
O	4.127627	2.063813	2.063813
O	6.191440	0.000000	2.063813
U	4.127627	0.000000	0.000000
Au	6.191440	2.063813	6.191440
O	6.191440	2.063813	4.127627
O	4.127627	2.063813	6.191440
O	6.191440	0.000000	6.191440
U	4.127627	0.000000	4.127627
Au	6.191440	6.191440	2.063813
O	6.191440	6.191440	0.000000
O	4.127627	6.191440	2.063813
O	6.191440	4.127627	2.063813
U	4.127627	4.127627	0.000000
Au	6.191440	6.191440	6.191440
O	6.191440	6.191440	4.127627
O	4.127627	6.191440	6.191440
O	6.191440	4.127627	6.191440
U	4.127627	4.127627	4.127627
