40

Mn	0.000000	0.000000	0.000000
O	2.128870	2.128870	0.000000
O	0.000000	2.128870	2.128870
O	2.128870	0.000000	2.128870
Rb	2.128870	2.128870	2.128870
Mn	0.000000	0.000000	4.257735
O	2.128870	2.128870	4.257735
O	0.000000	2.128870	6.386605
O	2.128870	0.000000	6.386605
Rb	2.128870	2.128870	6.386605
Mn	0.000000	4.257735	0.000000
O	2.128870	6.386605	0.000000
O	0.000000	6.386605	2.128870
O	2.128870	4.257735	2.128870
Rb	2.128870	6.386605	2.128870
Mn	0.000000	4.257735	4.257735
O	2.128870	6.386605	4.257735
O	0.000000	6.386605	6.386605
O	2.128870	4.257735	6.386605
Rb	2.128870	6.386605	6.386605
Mn	4.257735	0.000000	0.000000
O	6.386605	2.128870	0.000000
O	4.257735	2.128870	2.128870
O	6.386605	0.000000	2.128870
Rb	6.386605	2.128870	2.128870
Mn	4.257735	0.000000	4.257735
O	6.386605	2.128870	4.257735
O	4.257735	2.128870	6.386605
O	6.386605	0.000000	6.386605
Rb	6.386605	2.128870	6.386605
Mn	4.257735	4.257735	0.000000
O	6.386605	6.386605	0.000000
O	4.257735	6.386605	2.128870
O	6.386605	4.257735	2.128870
Rb	6.386605	6.386605	2.128870
Mn	4.257735	4.257735	4.257735
O	6.386605	6.386605	4.257735
O	4.257735	6.386605	6.386605
O	6.386605	4.257735	6.386605
Rb	6.386605	6.386605	6.386605
