40

Cr	1.903522	1.903522	1.903522
O	1.903522	1.903522	0.000000
O	1.903522	0.000000	1.903522
O	0.000000	1.903522	1.903522
Re	0.000000	0.000000	0.000000
Cr	1.903522	1.903522	5.710559
O	1.903522	1.903522	3.807038
O	1.903522	0.000000	5.710559
O	0.000000	1.903522	5.710559
Re	0.000000	0.000000	3.807038
Cr	1.903522	5.710559	1.903522
O	1.903522	5.710559	0.000000
O	1.903522	3.807038	1.903522
O	0.000000	5.710559	1.903522
Re	0.000000	3.807038	0.000000
Cr	1.903522	5.710559	5.710559
O	1.903522	5.710559	3.807038
O	1.903522	3.807038	5.710559
O	0.000000	5.710559	5.710559
Re	0.000000	3.807038	3.807038
Cr	5.710559	1.903522	1.903522
O	5.710559	1.903522	0.000000
O	5.710559	0.000000	1.903522
O	3.807038	1.903522	1.903522
Re	3.807038	0.000000	0.000000
Cr	5.710559	1.903522	5.710559
O	5.710559	1.903522	3.807038
O	5.710559	0.000000	5.710559
O	3.807038	1.903522	5.710559
Re	3.807038	0.000000	3.807038
Cr	5.710559	5.710559	1.903522
O	5.710559	5.710559	0.000000
O	5.710559	3.807038	1.903522
O	3.807038	5.710559	1.903522
Re	3.807038	3.807038	0.000000
Cr	5.710559	5.710559	5.710559
O	5.710559	5.710559	3.807038
O	5.710559	3.807038	5.710559
O	3.807038	5.710559	5.710559
Re	3.807038	3.807038	3.807038
