40

Ag	2.034730	2.034730	2.034730
O	2.034730	2.034730	0.000000
O	0.000000	2.034730	2.034730
O	2.034730	0.000000	2.034730
Pb	0.000000	0.000000	0.000000
Ag	2.034730	2.034730	6.104191
O	2.034730	2.034730	4.069460
O	0.000000	2.034730	6.104191
O	2.034730	0.000000	6.104191
Pb	0.000000	0.000000	4.069460
Ag	2.034730	6.104191	2.034730
O	2.034730	6.104191	0.000000
O	0.000000	6.104191	2.034730
O	2.034730	4.069460	2.034730
Pb	0.000000	4.069460	0.000000
Ag	2.034730	6.104191	6.104191
O	2.034730	6.104191	4.069460
O	0.000000	6.104191	6.104191
O	2.034730	4.069460	6.104191
Pb	0.000000	4.069460	4.069460
Ag	6.104191	2.034730	2.034730
O	6.104191	2.034730	0.000000
O	4.069460	2.034730	2.034730
O	6.104191	0.000000	2.034730
Pb	4.069460	0.000000	0.000000
Ag	6.104191	2.034730	6.104191
O	6.104191	2.034730	4.069460
O	4.069460	2.034730	6.104191
O	6.104191	0.000000	6.104191
Pb	4.069460	0.000000	4.069460
Ag	6.104191	6.104191	2.034730
O	6.104191	6.104191	0.000000
O	4.069460	6.104191	2.034730
O	6.104191	4.069460	2.034730
Pb	4.069460	4.069460	0.000000
Ag	6.104191	6.104191	6.104191
O	6.104191	6.104191	4.069460
O	4.069460	6.104191	6.104191
O	6.104191	4.069460	6.104191
Pb	4.069460	4.069460	4.069460
