40

Ag	2.034610	2.034610	2.034610
O	2.034610	2.034610	0.000000
O	0.000000	2.034610	2.034610
O	2.034610	0.000000	2.034610
Pb_d	0.000000	0.000000	0.000000
Ag	2.034610	2.034610	6.103829
O	2.034610	2.034610	4.069219
O	0.000000	2.034610	6.103829
O	2.034610	0.000000	6.103829
Pb_d	0.000000	0.000000	4.069219
Ag	2.034610	6.103829	2.034610
O	2.034610	6.103829	0.000000
O	0.000000	6.103829	2.034610
O	2.034610	4.069219	2.034610
Pb_d	0.000000	4.069219	0.000000
Ag	2.034610	6.103829	6.103829
O	2.034610	6.103829	4.069219
O	0.000000	6.103829	6.103829
O	2.034610	4.069219	6.103829
Pb_d	0.000000	4.069219	4.069219
Ag	6.103829	2.034610	2.034610
O	6.103829	2.034610	0.000000
O	4.069219	2.034610	2.034610
O	6.103829	0.000000	2.034610
Pb_d	4.069219	0.000000	0.000000
Ag	6.103829	2.034610	6.103829
O	6.103829	2.034610	4.069219
O	4.069219	2.034610	6.103829
O	6.103829	0.000000	6.103829
Pb_d	4.069219	0.000000	4.069219
Ag	6.103829	6.103829	2.034610
O	6.103829	6.103829	0.000000
O	4.069219	6.103829	2.034610
O	6.103829	4.069219	2.034610
Pb_d	4.069219	4.069219	0.000000
Ag	6.103829	6.103829	6.103829
O	6.103829	6.103829	4.069219
O	4.069219	6.103829	6.103829
O	6.103829	4.069219	6.103829
Pb_d	4.069219	4.069219	4.069219
