112

O	3.512620	-0.982007	-0.982007
O	-0.982389	0.982007	-3.514165
O	0.982389	-0.982007	-3.514165
O	1.265116	1.266079	-1.266079
O	5.477399	0.982007	-0.982007
O	1.265116	3.230093	-3.230093
O	3.229894	3.230093	-1.266079
O	3.229894	1.266079	-3.230093
Pm	0.000000	0.000000	0.000000
Pm	2.247505	-2.248086	-2.248086
Ti	-1.123752	-1.124043	-3.372129
Ti	3.371257	1.124043	-1.124043
Ti	5.618762	-1.124043	-1.124043
Ti	1.123752	1.124043	-3.372129
O	8.007630	3.514165	-0.982007
O	3.512620	5.478178	-3.514165
O	5.477399	3.514165	-3.514165
O	5.760125	5.762250	-1.266079
O	9.972409	5.478178	-0.982007
O	5.760125	7.726264	-3.230093
O	7.724904	7.726264	-1.266079
O	7.724904	5.762250	-3.230093
Pm	4.495010	4.496171	0.000000
Pm	6.742515	2.248086	-2.248086
Ti	3.371257	3.372129	-3.372129
Ti	7.866267	5.620214	-1.124043
Ti	10.113772	3.372129	-1.124043
Ti	5.618762	5.620214	-3.372129
O	-0.982389	-0.982007	-5.478178
O	-5.477399	0.982007	-8.010336
O	-3.512620	-0.982007	-8.010336
O	-3.229894	1.266079	-5.762250
O	0.982389	0.982007	-5.478178
O	-3.229894	3.230093	-7.726264
O	-1.265116	3.230093	-5.762250
O	-1.265116	1.266079	-7.726264
Pm	-4.495010	0.000000	-4.496171
Pm	-2.247505	-2.248086	-6.744257
Ti	-5.618762	-1.124043	-7.868300
Ti	-1.123752	1.124043	-5.620214
Ti	1.123752	-1.124043	-5.620214
Ti	-3.371257	1.124043	-7.868300
O	3.512620	3.514165	-5.478178
O	-0.982389	5.478178	-8.010336
O	0.982389	3.514165	-8.010336
O	1.265116	5.762250	-5.762250
O	5.477399	5.478178	-5.478178
O	1.265116	7.726264	-7.726264
O	3.229894	7.726264	-5.762250
O	3.229894	5.762250	-7.726264
Pm	0.000000	4.496171	-4.496171
Pm	2.247505	2.248086	-6.744257
Ti	-1.123752	3.372129	-7.868300
Ti	3.371257	5.620214	-5.620214
Ti	5.618762	3.372129	-5.620214
Ti	1.123752	5.620214	-7.868300
O	8.007630	-5.478178	-0.982007
O	3.512620	-3.514165	-3.514165
O	5.477399	-5.478178	-3.514165
O	5.760125	-3.230093	-1.266079
O	9.972409	-3.514165	-0.982007
O	5.760125	-1.266079	-3.230093
O	7.724904	-1.266079	-1.266079
O	7.724904	-3.230093	-3.230093
Pm	4.495010	-4.496171	0.000000
Pm	6.742515	-6.744257	-2.248086
Ti	3.371257	-5.620214	-3.372129
Ti	7.866267	-3.372129	-1.124043
Ti	10.113772	-5.620214	-1.124043
Ti	5.618762	-3.372129	-3.372129
O	12.502640	-0.982007	-0.982007
O	8.007630	0.982007	-3.514165
O	9.972409	-0.982007	-3.514165
O	10.255135	1.266079	-1.266079
O	14.467418	0.982007	-0.982007
O	10.255135	3.230093	-3.230093
O	12.219913	3.230093	-1.266079
O	12.219913	1.266079	-3.230093
Pm	8.990019	0.000000	0.000000
Pm	11.237524	-2.248086	-2.248086
Ti	7.866267	-1.124043	-3.372129
Ti	12.361277	1.124043	-1.124043
Ti	14.608781	-1.124043	-1.124043
Ti	10.113772	1.124043	-3.372129
O	3.512620	-5.478178	-5.478178
O	-0.982389	-3.514165	-8.010336
O	0.982389	-5.478178	-8.010336
O	1.265116	-3.230093	-5.762250
O	5.477399	-3.514165	-5.478178
O	1.265116	-1.266079	-7.726264
O	3.229894	-1.266079	-5.762250
O	3.229894	-3.230093	-7.726264
Pm	0.000000	-4.496171	-4.496171
Pm	2.247505	-6.744257	-6.744257
Ti	-1.123752	-5.620214	-7.868300
Ti	3.371257	-3.372129	-5.620214
Ti	5.618762	-5.620214	-5.620214
Ti	1.123752	-3.372129	-7.868300
O	8.007630	-0.982007	-5.478178
O	3.512620	0.982007	-8.010336
O	5.477399	-0.982007	-8.010336
O	5.760125	1.266079	-5.762250
O	9.972409	0.982007	-5.478178
O	5.760125	3.230093	-7.726264
O	7.724904	3.230093	-5.762250
O	7.724904	1.266079	-7.726264
Pm	4.495010	0.000000	-4.496171
Pm	6.742515	-2.248086	-6.744257
Ti	3.371257	-1.124043	-7.868300
Ti	7.866267	1.124043	-5.620214
Ti	10.113772	-1.124043	-5.620214
Ti	5.618762	1.124043	-7.868300
