40

Au	0.000000	0.000000	0.000000
In_d	2.062580	2.062580	2.062580
O	2.062580	0.000000	2.062580
O	0.000000	2.062580	2.062580
O	2.062580	2.062580	0.000000
Au	0.000000	0.000000	4.125164
In_d	2.062580	2.062580	6.187744
O	2.062580	0.000000	6.187744
O	0.000000	2.062580	6.187744
O	2.062580	2.062580	4.125164
Au	0.000000	4.125164	0.000000
In_d	2.062580	6.187744	2.062580
O	2.062580	4.125164	2.062580
O	0.000000	6.187744	2.062580
O	2.062580	6.187744	0.000000
Au	0.000000	4.125164	4.125164
In_d	2.062580	6.187744	6.187744
O	2.062580	4.125164	6.187744
O	0.000000	6.187744	6.187744
O	2.062580	6.187744	4.125164
Au	4.125164	0.000000	0.000000
In_d	6.187744	2.062580	2.062580
O	6.187744	0.000000	2.062580
O	4.125164	2.062580	2.062580
O	6.187744	2.062580	0.000000
Au	4.125164	0.000000	4.125164
In_d	6.187744	2.062580	6.187744
O	6.187744	0.000000	6.187744
O	4.125164	2.062580	6.187744
O	6.187744	2.062580	4.125164
Au	4.125164	4.125164	0.000000
In_d	6.187744	6.187744	2.062580
O	6.187744	4.125164	2.062580
O	4.125164	6.187744	2.062580
O	6.187744	6.187744	0.000000
Au	4.125164	4.125164	4.125164
In_d	6.187744	6.187744	6.187744
O	6.187744	4.125164	6.187744
O	4.125164	6.187744	6.187744
O	6.187744	6.187744	4.125164
