40

Au	0.000000	0.000000	0.000000
In	2.089993	2.089993	2.089993
O	0.000000	2.089993	2.089993
O	2.089993	0.000000	2.089993
O	2.089993	2.089993	0.000000
Au	0.000000	0.000000	4.179986
In	2.089993	2.089993	6.269978
O	0.000000	2.089993	6.269978
O	2.089993	0.000000	6.269978
O	2.089993	2.089993	4.179986
Au	0.000000	4.179986	0.000000
In	2.089993	6.269978	2.089993
O	0.000000	6.269978	2.089993
O	2.089993	4.179986	2.089993
O	2.089993	6.269978	0.000000
Au	0.000000	4.179986	4.179986
In	2.089993	6.269978	6.269978
O	0.000000	6.269978	6.269978
O	2.089993	4.179986	6.269978
O	2.089993	6.269978	4.179986
Au	4.179986	0.000000	0.000000
In	6.269978	2.089993	2.089993
O	4.179986	2.089993	2.089993
O	6.269978	0.000000	2.089993
O	6.269978	2.089993	0.000000
Au	4.179986	0.000000	4.179986
In	6.269978	2.089993	6.269978
O	4.179986	2.089993	6.269978
O	6.269978	0.000000	6.269978
O	6.269978	2.089993	4.179986
Au	4.179986	4.179986	0.000000
In	6.269978	6.269978	2.089993
O	4.179986	6.269978	2.089993
O	6.269978	4.179986	2.089993
O	6.269978	6.269978	0.000000
Au	4.179986	4.179986	4.179986
In	6.269978	6.269978	6.269978
O	4.179986	6.269978	6.269978
O	6.269978	4.179986	6.269978
O	6.269978	6.269978	4.179986
