40

Cs	0.000000	0.000000	0.000000
Mg	2.070865	2.070865	2.070865
O	2.070865	2.070865	0.000000
O	2.070865	0.000000	2.070865
O	0.000000	2.070865	2.070865
Cs	0.000000	0.000000	4.141736
Mg	2.070865	2.070865	6.212602
O	2.070865	2.070865	4.141736
O	2.070865	0.000000	6.212602
O	0.000000	2.070865	6.212602
Cs	0.000000	4.141736	0.000000
Mg	2.070865	6.212602	2.070865
O	2.070865	6.212602	0.000000
O	2.070865	4.141736	2.070865
O	0.000000	6.212602	2.070865
Cs	0.000000	4.141736	4.141736
Mg	2.070865	6.212602	6.212602
O	2.070865	6.212602	4.141736
O	2.070865	4.141736	6.212602
O	0.000000	6.212602	6.212602
Cs	4.141736	0.000000	0.000000
Mg	6.212602	2.070865	2.070865
O	6.212602	2.070865	0.000000
O	6.212602	0.000000	2.070865
O	4.141736	2.070865	2.070865
Cs	4.141736	0.000000	4.141736
Mg	6.212602	2.070865	6.212602
O	6.212602	2.070865	4.141736
O	6.212602	0.000000	6.212602
O	4.141736	2.070865	6.212602
Cs	4.141736	4.141736	0.000000
Mg	6.212602	6.212602	2.070865
O	6.212602	6.212602	0.000000
O	6.212602	4.141736	2.070865
O	4.141736	6.212602	2.070865
Cs	4.141736	4.141736	4.141736
Mg	6.212602	6.212602	6.212602
O	6.212602	6.212602	4.141736
O	6.212602	4.141736	6.212602
O	4.141736	6.212602	6.212602
