40

Bi	0.000000	0.000000	0.000000
O	1.900382	1.900382	0.000000
O	1.900382	0.000000	1.900382
O	0.000000	1.900382	1.900382
Si	1.900382	1.900382	1.900382
Bi	0.000000	0.000000	3.800764
O	1.900382	1.900382	3.800764
O	1.900382	0.000000	5.701146
O	0.000000	1.900382	5.701146
Si	1.900382	1.900382	5.701146
Bi	0.000000	3.800764	0.000000
O	1.900382	5.701146	0.000000
O	1.900382	3.800764	1.900382
O	0.000000	5.701146	1.900382
Si	1.900382	5.701146	1.900382
Bi	0.000000	3.800764	3.800764
O	1.900382	5.701146	3.800764
O	1.900382	3.800764	5.701146
O	0.000000	5.701146	5.701146
Si	1.900382	5.701146	5.701146
Bi	3.800764	0.000000	0.000000
O	5.701146	1.900382	0.000000
O	5.701146	0.000000	1.900382
O	3.800764	1.900382	1.900382
Si	5.701146	1.900382	1.900382
Bi	3.800764	0.000000	3.800764
O	5.701146	1.900382	3.800764
O	5.701146	0.000000	5.701146
O	3.800764	1.900382	5.701146
Si	5.701146	1.900382	5.701146
Bi	3.800764	3.800764	0.000000
O	5.701146	5.701146	0.000000
O	5.701146	3.800764	1.900382
O	3.800764	5.701146	1.900382
Si	5.701146	5.701146	1.900382
Bi	3.800764	3.800764	3.800764
O	5.701146	5.701146	3.800764
O	5.701146	3.800764	5.701146
O	3.800764	5.701146	5.701146
Si	5.701146	5.701146	5.701146
