40

F	0.000000	1.968841	1.968841
F	1.968841	0.000000	1.968841
F	1.968841	1.968841	0.000000
Nb	0.000000	0.000000	0.000000
O	1.968841	1.968841	1.968841
F	0.000000	1.968841	5.906524
F	1.968841	0.000000	5.906524
F	1.968841	1.968841	3.937682
Nb	0.000000	0.000000	3.937682
O	1.968841	1.968841	5.906524
F	0.000000	5.906524	1.968841
F	1.968841	3.937682	1.968841
F	1.968841	5.906524	0.000000
Nb	0.000000	3.937682	0.000000
O	1.968841	5.906524	1.968841
F	0.000000	5.906524	5.906524
F	1.968841	3.937682	5.906524
F	1.968841	5.906524	3.937682
Nb	0.000000	3.937682	3.937682
O	1.968841	5.906524	5.906524
F	3.937682	1.968841	1.968841
F	5.906524	0.000000	1.968841
F	5.906524	1.968841	0.000000
Nb	3.937682	0.000000	0.000000
O	5.906524	1.968841	1.968841
F	3.937682	1.968841	5.906524
F	5.906524	0.000000	5.906524
F	5.906524	1.968841	3.937682
Nb	3.937682	0.000000	3.937682
O	5.906524	1.968841	5.906524
F	3.937682	5.906524	1.968841
F	5.906524	3.937682	1.968841
F	5.906524	5.906524	0.000000
Nb	3.937682	3.937682	0.000000
O	5.906524	5.906524	1.968841
F	3.937682	5.906524	5.906524
F	5.906524	3.937682	5.906524
F	5.906524	5.906524	3.937682
Nb	3.937682	3.937682	3.937682
O	5.906524	5.906524	5.906524
