40

Nb	1.997380	1.997380	1.997380
O	0.000000	1.997380	1.997380
O	1.997380	0.000000	1.997380
O	1.997380	1.997380	0.000000
Rh	0.000000	0.000000	0.000000
Nb	1.997380	1.997380	5.992141
O	0.000000	1.997380	5.992141
O	1.997380	0.000000	5.992141
O	1.997380	1.997380	3.994761
Rh	0.000000	0.000000	3.994761
Nb	1.997380	5.992141	1.997380
O	0.000000	5.992141	1.997380
O	1.997380	3.994761	1.997380
O	1.997380	5.992141	0.000000
Rh	0.000000	3.994761	0.000000
Nb	1.997380	5.992141	5.992141
O	0.000000	5.992141	5.992141
O	1.997380	3.994761	5.992141
O	1.997380	5.992141	3.994761
Rh	0.000000	3.994761	3.994761
Nb	5.992141	1.997380	1.997380
O	3.994761	1.997380	1.997380
O	5.992141	0.000000	1.997380
O	5.992141	1.997380	0.000000
Rh	3.994761	0.000000	0.000000
Nb	5.992141	1.997380	5.992141
O	3.994761	1.997380	5.992141
O	5.992141	0.000000	5.992141
O	5.992141	1.997380	3.994761
Rh	3.994761	0.000000	3.994761
Nb	5.992141	5.992141	1.997380
O	3.994761	5.992141	1.997380
O	5.992141	3.994761	1.997380
O	5.992141	5.992141	0.000000
Rh	3.994761	3.994761	0.000000
Nb	5.992141	5.992141	5.992141
O	3.994761	5.992141	5.992141
O	5.992141	3.994761	5.992141
O	5.992141	5.992141	3.994761
Rh	3.994761	3.994761	3.994761
