40

O	0.000000	1.969025	1.969025
O	1.969025	0.000000	1.969025
O	1.969025	1.969025	0.000000
Re	0.000000	0.000000	0.000000
Ti	1.969025	1.969025	1.969025
O	0.000000	1.969025	5.907075
O	1.969025	0.000000	5.907075
O	1.969025	1.969025	3.938050
Re	0.000000	0.000000	3.938050
Ti	1.969025	1.969025	5.907075
O	0.000000	5.907075	1.969025
O	1.969025	3.938050	1.969025
O	1.969025	5.907075	0.000000
Re	0.000000	3.938050	0.000000
Ti	1.969025	5.907075	1.969025
O	0.000000	5.907075	5.907075
O	1.969025	3.938050	5.907075
O	1.969025	5.907075	3.938050
Re	0.000000	3.938050	3.938050
Ti	1.969025	5.907075	5.907075
O	3.938050	1.969025	1.969025
O	5.907075	0.000000	1.969025
O	5.907075	1.969025	0.000000
Re	3.938050	0.000000	0.000000
Ti	5.907075	1.969025	1.969025
O	3.938050	1.969025	5.907075
O	5.907075	0.000000	5.907075
O	5.907075	1.969025	3.938050
Re	3.938050	0.000000	3.938050
Ti	5.907075	1.969025	5.907075
O	3.938050	5.907075	1.969025
O	5.907075	3.938050	1.969025
O	5.907075	5.907075	0.000000
Re	3.938050	3.938050	0.000000
Ti	5.907075	5.907075	1.969025
O	3.938050	5.907075	5.907075
O	5.907075	3.938050	5.907075
O	5.907075	5.907075	3.938050
Re	3.938050	3.938050	3.938050
Ti	5.907075	5.907075	5.907075
