40

Cd	2.060960	2.060960	2.060960
Np	0.000000	0.000000	0.000000
O	2.060960	2.060960	0.000000
O	0.000000	2.060960	2.060960
O	2.060960	0.000000	2.060960
Cd	2.060960	2.060960	6.182892
Np	0.000000	0.000000	4.121932
O	2.060960	2.060960	4.121932
O	0.000000	2.060960	6.182892
O	2.060960	0.000000	6.182892
Cd	2.060960	6.182892	2.060960
Np	0.000000	4.121932	0.000000
O	2.060960	6.182892	0.000000
O	0.000000	6.182892	2.060960
O	2.060960	4.121932	2.060960
Cd	2.060960	6.182892	6.182892
Np	0.000000	4.121932	4.121932
O	2.060960	6.182892	4.121932
O	0.000000	6.182892	6.182892
O	2.060960	4.121932	6.182892
Cd	6.182892	2.060960	2.060960
Np	4.121932	0.000000	0.000000
O	6.182892	2.060960	0.000000
O	4.121932	2.060960	2.060960
O	6.182892	0.000000	2.060960
Cd	6.182892	2.060960	6.182892
Np	4.121932	0.000000	4.121932
O	6.182892	2.060960	4.121932
O	4.121932	2.060960	6.182892
O	6.182892	0.000000	6.182892
Cd	6.182892	6.182892	2.060960
Np	4.121932	4.121932	0.000000
O	6.182892	6.182892	0.000000
O	4.121932	6.182892	2.060960
O	6.182892	4.121932	2.060960
Cd	6.182892	6.182892	6.182892
Np	4.121932	4.121932	4.121932
O	6.182892	6.182892	4.121932
O	4.121932	6.182892	6.182892
O	6.182892	4.121932	6.182892
