40

As	0.000000	0.000000	0.000000
Bi	2.134698	2.134698	2.134698
O	0.000000	2.134698	2.134698
O	2.134698	0.000000	2.134698
O	2.134698	2.134698	0.000000
As	0.000000	0.000000	4.269396
Bi	2.134698	2.134698	6.404095
O	0.000000	2.134698	6.404095
O	2.134698	0.000000	6.404095
O	2.134698	2.134698	4.269396
As	0.000000	4.269396	0.000000
Bi	2.134698	6.404095	2.134698
O	0.000000	6.404095	2.134698
O	2.134698	4.269396	2.134698
O	2.134698	6.404095	0.000000
As	0.000000	4.269396	4.269396
Bi	2.134698	6.404095	6.404095
O	0.000000	6.404095	6.404095
O	2.134698	4.269396	6.404095
O	2.134698	6.404095	4.269396
As	4.269396	0.000000	0.000000
Bi	6.404095	2.134698	2.134698
O	4.269396	2.134698	2.134698
O	6.404095	0.000000	2.134698
O	6.404095	2.134698	0.000000
As	4.269396	0.000000	4.269396
Bi	6.404095	2.134698	6.404095
O	4.269396	2.134698	6.404095
O	6.404095	0.000000	6.404095
O	6.404095	2.134698	4.269396
As	4.269396	4.269396	0.000000
Bi	6.404095	6.404095	2.134698
O	4.269396	6.404095	2.134698
O	6.404095	4.269396	2.134698
O	6.404095	6.404095	0.000000
As	4.269396	4.269396	4.269396
Bi	6.404095	6.404095	6.404095
O	4.269396	6.404095	6.404095
O	6.404095	4.269396	6.404095
O	6.404095	6.404095	4.269396
