40

As	0.000000	0.000000	0.000000
Bi	2.136899	2.136899	2.136899
O	0.000000	2.136899	2.136899
O	2.136899	0.000000	2.136899
O	2.136899	2.136899	0.000000
As	0.000000	0.000000	4.273798
Bi	2.136899	2.136899	6.410697
O	0.000000	2.136899	6.410697
O	2.136899	0.000000	6.410697
O	2.136899	2.136899	4.273798
As	0.000000	4.273798	0.000000
Bi	2.136899	6.410697	2.136899
O	0.000000	6.410697	2.136899
O	2.136899	4.273798	2.136899
O	2.136899	6.410697	0.000000
As	0.000000	4.273798	4.273798
Bi	2.136899	6.410697	6.410697
O	0.000000	6.410697	6.410697
O	2.136899	4.273798	6.410697
O	2.136899	6.410697	4.273798
As	4.273798	0.000000	0.000000
Bi	6.410697	2.136899	2.136899
O	4.273798	2.136899	2.136899
O	6.410697	0.000000	2.136899
O	6.410697	2.136899	0.000000
As	4.273798	0.000000	4.273798
Bi	6.410697	2.136899	6.410697
O	4.273798	2.136899	6.410697
O	6.410697	0.000000	6.410697
O	6.410697	2.136899	4.273798
As	4.273798	4.273798	0.000000
Bi	6.410697	6.410697	2.136899
O	4.273798	6.410697	2.136899
O	6.410697	4.273798	2.136899
O	6.410697	6.410697	0.000000
As	4.273798	4.273798	4.273798
Bi	6.410697	6.410697	6.410697
O	4.273798	6.410697	6.410697
O	6.410697	4.273798	6.410697
O	6.410697	6.410697	4.273798
