112

Hf	0.000000	0.000000	0.000000
Hf	2.534214	-2.534572	-2.534572
K	-1.267107	-1.267286	-3.801848
K	1.267107	1.267286	-3.801848
K	6.335536	-1.267286	-1.267286
K	3.801322	1.267286	-1.267286
O	-1.405233	1.405262	-3.663872
O	3.663196	-1.405262	-1.405262
O	1.405233	-1.405262	-3.663872
O	1.128982	1.129300	-1.129300
O	6.473662	1.405262	-1.405262
O	1.128982	3.939834	-3.939834
O	3.939447	3.939834	-1.129300
O	3.939447	1.129300	-3.939834
Hf	5.068430	5.069135	0.000000
Hf	7.602644	2.534563	-2.534572
K	3.801322	3.801849	-3.801848
K	6.335537	6.336421	-3.801848
K	11.403966	3.801849	-1.267286
K	8.869751	6.336421	-1.267286
O	3.663197	6.474397	-3.663872
O	8.731626	3.663873	-1.405262
O	6.473662	3.663873	-3.663872
O	6.197412	6.198435	-1.129300
O	11.542091	6.474397	-1.405262
O	6.197411	9.008968	-3.939834
O	9.007877	9.008968	-1.129300
O	9.007877	6.198435	-3.939834
Hf	-5.068430	0.000000	-5.069135
Hf	-2.534215	-2.534572	-7.603707
K	-6.335537	-1.267286	-8.870983
K	-3.801322	1.267286	-8.870983
K	1.267107	-1.267286	-6.336421
K	-1.267108	1.267286	-6.336421
O	-6.473662	1.405262	-8.733006
O	-1.405233	-1.405262	-6.474397
O	-3.663197	-1.405262	-8.733006
O	-3.939448	1.129300	-6.198435
O	1.405232	1.405262	-6.474397
O	-3.939448	3.939834	-9.008968
O	-1.128983	3.939834	-6.198435
O	-1.128983	1.129300	-9.008968
Hf	0.000000	5.069135	-5.069135
Hf	2.534214	2.534563	-7.603707
K	-1.267107	3.801849	-8.870983
K	1.267107	6.336421	-8.870983
K	6.335536	3.801849	-6.336421
K	3.801322	6.336421	-6.336421
O	-1.405233	6.474397	-8.733006
O	3.663196	3.663873	-6.474397
O	1.405233	3.663873	-8.733006
O	1.128982	6.198435	-6.198435
O	6.473662	6.474397	-6.474397
O	1.128982	9.008968	-9.008968
O	3.939447	9.008968	-6.198435
O	3.939447	6.198435	-9.008968
Hf	5.068430	-5.069135	0.000000
Hf	7.602644	-7.603706	-2.534572
K	3.801322	-6.336421	-3.801848
K	6.335537	-3.801849	-3.801848
K	11.403966	-6.336421	-1.267286
K	8.869751	-3.801849	-1.267286
O	3.663197	-3.663873	-3.663872
O	8.731626	-6.474397	-1.405262
O	6.473662	-6.474397	-3.663872
O	6.197412	-3.939835	-1.129300
O	11.542091	-3.663873	-1.405262
O	6.197411	-1.129301	-3.939834
O	9.007877	-1.129301	-1.129300
O	9.007877	-3.939835	-3.939834
Hf	10.136859	0.000000	0.000000
Hf	12.671074	-2.534572	-2.534572
K	8.869752	-1.267286	-3.801848
K	11.403967	1.267286	-3.801848
K	16.472396	-1.267286	-1.267286
K	13.938181	1.267286	-1.267286
O	8.731627	1.405262	-3.663872
O	13.800056	-1.405262	-1.405262
O	11.542092	-1.405262	-3.663872
O	11.265841	1.129300	-1.129300
O	16.610521	1.405262	-1.405262
O	11.265841	3.939834	-3.939834
O	14.076306	3.939834	-1.129300
O	14.076306	1.129300	-3.939834
Hf	0.000000	-5.069135	-5.069135
Hf	2.534214	-7.603706	-7.603707
K	-1.267107	-6.336421	-8.870983
K	1.267107	-3.801849	-8.870983
K	6.335536	-6.336421	-6.336421
K	3.801322	-3.801849	-6.336421
O	-1.405233	-3.663873	-8.733006
O	3.663196	-6.474397	-6.474397
O	1.405233	-6.474397	-8.733006
O	1.128982	-3.939835	-6.198435
O	6.473662	-3.663873	-6.474397
O	1.128982	-1.129301	-9.008968
O	3.939447	-1.129301	-6.198435
O	3.939447	-3.939835	-9.008968
Hf	5.068430	0.000000	-5.069135
Hf	7.602644	-2.534572	-7.603707
K	3.801322	-1.267286	-8.870983
K	6.335537	1.267286	-8.870983
K	11.403966	-1.267286	-6.336421
K	8.869751	1.267286	-6.336421
O	3.663197	1.405262	-8.733006
O	8.731626	-1.405262	-6.474397
O	6.473662	-1.405262	-8.733006
O	6.197412	1.129300	-6.198435
O	11.542091	1.405262	-6.474397
O	6.197411	3.939834	-9.008968
O	9.007877	3.939834	-6.198435
O	9.007877	1.129300	-9.008968
