112

Li	0.000000	0.000000	0.000000
Li	2.141114	-2.142025	-2.142025
Nb	-1.070557	-1.071008	-3.213033
Nb	3.211661	1.071008	-1.071008
Nb	1.070557	1.071008	-3.213033
Nb	5.352774	-1.071008	-1.071008
O	3.229763	-1.052797	-1.052797
O	-1.052454	1.052797	-3.231253
O	1.052454	-1.052797	-3.231253
O	1.088650	1.089228	-1.089228
O	5.334672	1.052797	-1.052797
O	1.088650	3.194822	-3.194822
O	3.193568	1.089228	-3.194822
O	3.193568	3.194823	-1.089228
Li	4.282218	4.284050	0.000000
Li	6.423332	2.142025	-2.142025
Nb	3.211661	3.213043	-3.213033
Nb	7.493879	5.355058	-1.071008
Nb	5.352775	5.355058	-3.213033
Nb	9.634992	3.213043	-1.071008
O	7.511981	3.231253	-1.052797
O	3.229764	5.336848	-3.231253
O	5.334672	3.231253	-3.231253
O	5.370868	5.373278	-1.089228
O	9.616890	5.336847	-1.052797
O	5.370868	7.478873	-3.194822
O	7.475786	5.373278	-3.194822
O	7.475786	7.478873	-1.089228
Li	-4.282218	0.000000	-4.284050
Li	-2.141104	-2.142025	-6.426075
Nb	-5.352775	-1.071008	-7.497083
Nb	-1.070557	1.071008	-5.355058
Nb	-3.211661	1.071008	-7.497083
Nb	1.070556	-1.071008	-5.355058
O	-1.052455	-1.052797	-5.336847
O	-5.334672	1.052797	-7.515304
O	-3.229764	-1.052797	-7.515304
O	-3.193568	1.089228	-5.373278
O	1.052454	1.052797	-5.336847
O	-3.193568	3.194822	-7.478873
O	-1.088650	1.089228	-7.478873
O	-1.088650	3.194823	-5.373278
Li	0.000000	4.284050	-4.284050
Li	2.141114	2.142025	-6.426075
Nb	-1.070557	3.213043	-7.497083
Nb	3.211661	5.355058	-5.355058
Nb	1.070557	5.355058	-7.497083
Nb	5.352774	3.213043	-5.355058
O	3.229763	3.231253	-5.336847
O	-1.052454	5.336848	-7.515304
O	1.052454	3.231253	-7.515304
O	1.088650	5.373278	-5.373278
O	5.334672	5.336847	-5.336847
O	1.088650	7.478873	-7.478873
O	3.193568	5.373278	-7.478873
O	3.193568	7.478873	-5.373278
Li	4.282218	-4.284050	0.000000
Li	6.423332	-6.426075	-2.142025
Nb	3.211661	-5.355058	-3.213033
Nb	7.493879	-3.213043	-1.071008
Nb	5.352775	-3.213043	-3.213033
Nb	9.634992	-5.355058	-1.071008
O	7.511981	-5.336848	-1.052797
O	3.229764	-3.231253	-3.231253
O	5.334672	-5.336847	-3.231253
O	5.370868	-3.194822	-1.089228
O	9.616890	-3.231253	-1.052797
O	5.370868	-1.089228	-3.194822
O	7.475786	-3.194822	-3.194822
O	7.475786	-1.089228	-1.089228
Li	8.564436	0.000000	0.000000
Li	10.705550	-2.142025	-2.142025
Nb	7.493879	-1.071008	-3.213033
Nb	11.776097	1.071008	-1.071008
Nb	9.634993	1.071008	-3.213033
Nb	13.917211	-1.071008	-1.071008
O	11.794199	-1.052797	-1.052797
O	7.511982	1.052797	-3.231253
O	9.616890	-1.052797	-3.231253
O	9.653086	1.089228	-1.089228
O	13.899108	1.052797	-1.052797
O	9.653086	3.194822	-3.194822
O	11.758004	1.089228	-3.194822
O	11.758004	3.194823	-1.089228
Li	0.000000	-4.284050	-4.284050
Li	2.141114	-6.426075	-6.426075
Nb	-1.070557	-5.355058	-7.497083
Nb	3.211661	-3.213043	-5.355058
Nb	1.070557	-3.213043	-7.497083
Nb	5.352774	-5.355058	-5.355058
O	3.229763	-5.336848	-5.336847
O	-1.052454	-3.231253	-7.515304
O	1.052454	-5.336847	-7.515304
O	1.088650	-3.194822	-5.373278
O	5.334672	-3.231253	-5.336847
O	1.088650	-1.089228	-7.478873
O	3.193568	-3.194822	-7.478873
O	3.193568	-1.089228	-5.373278
Li	4.282218	0.000000	-4.284050
Li	6.423332	-2.142025	-6.426075
Nb	3.211661	-1.071008	-7.497083
Nb	7.493879	1.071008	-5.355058
Nb	5.352775	1.071008	-7.497083
Nb	9.634992	-1.071008	-5.355058
O	7.511981	-1.052797	-5.336847
O	3.229764	1.052797	-7.515304
O	5.334672	-1.052797	-7.515304
O	5.370868	1.089228	-5.373278
O	9.616890	1.052797	-5.336847
O	5.370868	3.194822	-7.478873
O	7.475786	1.089228	-7.478873
O	7.475786	3.194823	-5.373278
