40

Ir	1.968931	1.968931	1.968931
O	1.968931	1.968931	0.000000
O	1.968931	0.000000	1.968931
O	0.000000	1.968931	1.968931
Ta	0.000000	0.000000	0.000000
Ir	1.968931	1.968931	5.906793
O	1.968931	1.968931	3.937862
O	1.968931	0.000000	5.906793
O	0.000000	1.968931	5.906793
Ta	0.000000	0.000000	3.937862
Ir	1.968931	5.906793	1.968931
O	1.968931	5.906793	0.000000
O	1.968931	3.937862	1.968931
O	0.000000	5.906793	1.968931
Ta	0.000000	3.937862	0.000000
Ir	1.968931	5.906793	5.906793
O	1.968931	5.906793	3.937862
O	1.968931	3.937862	5.906793
O	0.000000	5.906793	5.906793
Ta	0.000000	3.937862	3.937862
Ir	5.906793	1.968931	1.968931
O	5.906793	1.968931	0.000000
O	5.906793	0.000000	1.968931
O	3.937862	1.968931	1.968931
Ta	3.937862	0.000000	0.000000
Ir	5.906793	1.968931	5.906793
O	5.906793	1.968931	3.937862
O	5.906793	0.000000	5.906793
O	3.937862	1.968931	5.906793
Ta	3.937862	0.000000	3.937862
Ir	5.906793	5.906793	1.968931
O	5.906793	5.906793	0.000000
O	5.906793	3.937862	1.968931
O	3.937862	5.906793	1.968931
Ta	3.937862	3.937862	0.000000
Ir	5.906793	5.906793	5.906793
O	5.906793	5.906793	3.937862
O	5.906793	3.937862	5.906793
O	3.937862	5.906793	5.906793
Ta	3.937862	3.937862	3.937862
