112

Be	0.000000	0.000000	0.000000
Be	2.305453	-2.305122	-2.305122
Nd	-1.152722	-1.152556	-3.457678
Nd	1.152722	1.152556	-3.457678
Nd	3.458175	1.152556	-1.152556
Nd	5.763618	-1.152556	-1.152556
O	1.070914	1.070857	-1.070857
O	1.234539	-1.234265	-3.375979
O	3.376358	-1.234265	-1.234265
O	-1.234539	1.234265	-3.375979
O	3.539993	3.539377	-1.070857
O	3.539993	1.070857	-3.539377
O	1.070914	3.539377	-3.539377
O	5.845436	1.234265	-1.234265
Be	4.610898	4.610240	0.000000
Be	6.916351	2.305118	-2.305122
Nd	3.458176	3.457684	-3.457678
Nd	5.763620	5.762796	-3.457678
Nd	8.069073	5.762796	-1.152556
Nd	10.374517	3.457684	-1.152556
O	5.681812	5.681097	-1.070857
O	5.845437	3.375975	-3.375979
O	7.987256	3.375975	-1.234265
O	3.376359	5.844505	-3.375979
O	8.150891	8.149617	-1.070857
O	8.150891	5.681097	-3.539377
O	5.681812	8.149617	-3.539377
O	10.456334	5.844505	-1.234265
Be	-4.610898	0.000000	-4.610240
Be	-2.305445	-2.305122	-6.915362
Nd	-5.763620	-1.152556	-8.067918
Nd	-3.458176	1.152556	-8.067918
Nd	-1.152723	1.152556	-5.762796
Nd	1.152720	-1.152556	-5.762796
O	-3.539984	1.070857	-5.681097
O	-3.376359	-1.234265	-7.986219
O	-1.234540	-1.234265	-5.844505
O	-5.845437	1.234265	-7.986219
O	-1.070906	3.539377	-5.681097
O	-1.070906	1.070857	-8.149617
O	-3.539984	3.539377	-8.149617
O	1.234538	1.234265	-5.844505
Be	0.000000	4.610240	-4.610240
Be	2.305453	2.305118	-6.915362
Nd	-1.152722	3.457684	-8.067918
Nd	1.152722	5.762796	-8.067918
Nd	3.458175	5.762796	-5.762796
Nd	5.763618	3.457684	-5.762796
O	1.070914	5.681097	-5.681097
O	1.234539	3.375975	-7.986219
O	3.376358	3.375975	-5.844505
O	-1.234539	5.844505	-7.986219
O	3.539993	8.149617	-5.681097
O	3.539993	5.681097	-8.149617
O	1.070914	8.149617	-8.149617
O	5.845436	5.844505	-5.844505
Be	4.610898	-4.610240	0.000000
Be	6.916351	-6.915362	-2.305122
Nd	3.458176	-5.762796	-3.457678
Nd	5.763620	-3.457684	-3.457678
Nd	8.069073	-3.457684	-1.152556
Nd	10.374517	-5.762796	-1.152556
O	5.681812	-3.539383	-1.070857
O	5.845437	-5.844505	-3.375979
O	7.987256	-5.844505	-1.234265
O	3.376359	-3.375975	-3.375979
O	8.150891	-1.070863	-1.070857
O	8.150891	-3.539383	-3.539377
O	5.681812	-1.070863	-3.539377
O	10.456334	-3.375975	-1.234265
Be	9.221796	0.000000	0.000000
Be	11.527250	-2.305122	-2.305122
Nd	8.069074	-1.152556	-3.457678
Nd	10.374518	1.152556	-3.457678
Nd	12.679971	1.152556	-1.152556
Nd	14.985415	-1.152556	-1.152556
O	10.292710	1.070857	-1.070857
O	10.456335	-1.234265	-3.375979
O	12.598154	-1.234265	-1.234265
O	7.987257	1.234265	-3.375979
O	12.761789	3.539377	-1.070857
O	12.761789	1.070857	-3.539377
O	10.292710	3.539377	-3.539377
O	15.067232	1.234265	-1.234265
Be	0.000000	-4.610240	-4.610240
Be	2.305453	-6.915362	-6.915362
Nd	-1.152722	-5.762796	-8.067918
Nd	1.152722	-3.457684	-8.067918
Nd	3.458175	-3.457684	-5.762796
Nd	5.763618	-5.762796	-5.762796
O	1.070914	-3.539383	-5.681097
O	1.234539	-5.844505	-7.986219
O	3.376358	-5.844505	-5.844505
O	-1.234539	-3.375975	-7.986219
O	3.539993	-1.070863	-5.681097
O	3.539993	-3.539383	-8.149617
O	1.070914	-1.070863	-8.149617
O	5.845436	-3.375975	-5.844505
Be	4.610898	0.000000	-4.610240
Be	6.916351	-2.305122	-6.915362
Nd	3.458176	-1.152556	-8.067918
Nd	5.763620	1.152556	-8.067918
Nd	8.069073	1.152556	-5.762796
Nd	10.374517	-1.152556	-5.762796
O	5.681812	1.070857	-5.681097
O	5.845437	-1.234265	-7.986219
O	7.987256	-1.234265	-5.844505
O	3.376359	1.234265	-7.986219
O	8.150891	3.539377	-5.681097
O	8.150891	1.070857	-8.149617
O	5.681812	3.539377	-8.149617
O	10.456334	1.234265	-5.844505
