40

Co	1.884251	1.884251	1.884251
O	1.884251	1.884251	0.000000
O	0.000000	1.884251	1.884251
O	1.884251	0.000000	1.884251
Pr	-0.015000	0.000000	0.000000
Co	1.884251	1.884251	5.652754
O	1.884251	1.884251	3.768503
O	0.000000	1.884251	5.652754
O	1.884251	0.000000	5.652754
Pr	-0.015000	0.000000	3.768503
Co	1.884251	5.652754	1.884251
O	1.884251	5.652754	0.000000
O	0.000000	5.652754	1.884251
O	1.884251	3.768503	1.884251
Pr	-0.015000	3.768503	0.000000
Co	1.884251	5.652754	5.652754
O	1.884251	5.652754	3.768503
O	0.000000	5.652754	5.652754
O	1.884251	3.768503	5.652754
Pr	-0.015000	3.768503	3.768503
Co	5.652754	1.884251	1.884251
O	5.652754	1.884251	0.000000
O	3.768503	1.884251	1.884251
O	5.652754	0.000000	1.884251
Pr	3.753503	0.000000	0.000000
Co	5.652754	1.884251	5.652754
O	5.652754	1.884251	3.768503
O	3.768503	1.884251	5.652754
O	5.652754	0.000000	5.652754
Pr	3.753503	0.000000	3.768503
Co	5.652754	5.652754	1.884251
O	5.652754	5.652754	0.000000
O	3.768503	5.652754	1.884251
O	5.652754	3.768503	1.884251
Pr	3.753503	3.768503	0.000000
Co	5.652754	5.652754	5.652754
O	5.652754	5.652754	3.768503
O	3.768503	5.652754	5.652754
O	5.652754	3.768503	5.652754
Pr	3.753503	3.768503	3.768503
