112

Al	0.000000	0.000000	0.000000
Al	2.103743	-2.104548	-2.104548
O	3.137376	-1.069891	-1.069891
O	-1.070110	1.069891	-3.139204
O	1.070110	-1.069891	-3.139204
O	1.033633	1.034657	-1.034657
O	5.277595	1.069891	-1.069891
O	1.033633	3.174438	-3.174438
O	3.173852	3.174438	-1.034657
O	3.173852	1.034657	-3.174438
Ru	-1.051871	-1.052274	-3.156821
Ru	3.155614	1.052274	-1.052274
Ru	5.259357	-1.052274	-1.052274
Ru	1.051871	1.052274	-3.156821
Al	4.207485	4.209095	0.000000
Al	6.311228	2.104548	-2.104548
O	7.344861	3.139204	-1.069891
O	3.137376	5.278986	-3.139204
O	5.277595	3.139204	-3.139204
O	5.241118	5.243752	-1.034657
O	9.485080	5.278986	-1.069891
O	5.241118	7.383533	-3.174438
O	7.381337	7.383533	-1.034657
O	7.381337	5.243752	-3.174438
Ru	3.155614	3.156821	-3.156821
Ru	7.363099	5.261369	-1.052274
Ru	9.466842	3.156821	-1.052274
Ru	5.259357	5.261369	-3.156821
Al	-4.207485	0.000000	-4.209095
Al	-2.103743	-2.104548	-6.313643
O	-1.070110	-1.069891	-5.278986
O	-5.277595	1.069891	-7.348300
O	-3.137376	-1.069891	-7.348300
O	-3.173852	1.034657	-5.243752
O	1.070110	1.069891	-5.278986
O	-3.173852	3.174438	-7.383533
O	-1.033633	3.174438	-5.243752
O	-1.033633	1.034657	-7.383533
Ru	-5.259357	-1.052274	-7.365916
Ru	-1.051871	1.052274	-5.261369
Ru	1.051871	-1.052274	-5.261369
Ru	-3.155614	1.052274	-7.365916
Al	0.000000	4.209095	-4.209095
Al	2.103743	2.104548	-6.313643
O	3.137376	3.139204	-5.278986
O	-1.070110	5.278986	-7.348300
O	1.070110	3.139204	-7.348300
O	1.033633	5.243752	-5.243752
O	5.277595	5.278986	-5.278986
O	1.033633	7.383533	-7.383533
O	3.173852	7.383533	-5.243752
O	3.173852	5.243752	-7.383533
Ru	-1.051871	3.156821	-7.365916
Ru	3.155614	5.261369	-5.261369
Ru	5.259357	3.156821	-5.261369
Ru	1.051871	5.261369	-7.365916
Al	4.207485	-4.209095	0.000000
Al	6.311228	-6.313643	-2.104548
O	7.344861	-5.278986	-1.069891
O	3.137376	-3.139204	-3.139204
O	5.277595	-5.278986	-3.139204
O	5.241118	-3.174438	-1.034657
O	9.485080	-3.139204	-1.069891
O	5.241118	-1.034657	-3.174438
O	7.381337	-1.034657	-1.034657
O	7.381337	-3.174438	-3.174438
Ru	3.155614	-5.261369	-3.156821
Ru	7.363099	-3.156821	-1.052274
Ru	9.466842	-5.261369	-1.052274
Ru	5.259357	-3.156821	-3.156821
Al	8.414971	0.000000	0.000000
Al	10.518713	-2.104548	-2.104548
O	11.552346	-1.069891	-1.069891
O	7.344861	1.069891	-3.139204
O	9.485080	-1.069891	-3.139204
O	9.448604	1.034657	-1.034657
O	13.692565	1.069891	-1.069891
O	9.448604	3.174438	-3.174438
O	11.588823	3.174438	-1.034657
O	11.588823	1.034657	-3.174438
Ru	7.363099	-1.052274	-3.156821
Ru	11.570584	1.052274	-1.052274
Ru	13.674327	-1.052274	-1.052274
Ru	9.466842	1.052274	-3.156821
Al	0.000000	-4.209095	-4.209095
Al	2.103743	-6.313643	-6.313643
O	3.137376	-5.278986	-5.278986
O	-1.070110	-3.139204	-7.348300
O	1.070110	-5.278986	-7.348300
O	1.033633	-3.174438	-5.243752
O	5.277595	-3.139204	-5.278986
O	1.033633	-1.034657	-7.383533
O	3.173852	-1.034657	-5.243752
O	3.173852	-3.174438	-7.383533
Ru	-1.051871	-5.261369	-7.365916
Ru	3.155614	-3.156821	-5.261369
Ru	5.259357	-5.261369	-5.261369
Ru	1.051871	-3.156821	-7.365916
Al	4.207485	0.000000	-4.209095
Al	6.311228	-2.104548	-6.313643
O	7.344861	-1.069891	-5.278986
O	3.137376	1.069891	-7.348300
O	5.277595	-1.069891	-7.348300
O	5.241118	1.034657	-5.243752
O	9.485080	1.069891	-5.278986
O	5.241118	3.174438	-7.383533
O	7.381337	3.174438	-5.243752
O	7.381337	1.034657	-7.383533
Ru	3.155614	-1.052274	-7.365916
Ru	7.363099	1.052274	-5.261369
Ru	9.466842	-1.052274	-5.261369
Ru	5.259357	1.052274	-7.365916
