40

O	2.193370	2.193370	0.000000
O	0.000000	2.193370	2.193370
O	2.193370	0.000000	2.193370
Pa	2.193370	2.193370	2.193370
Zr_sv	0.000000	0.000000	0.000000
O	2.193370	2.193370	4.386758
O	0.000000	2.193370	6.580128
O	2.193370	0.000000	6.580128
Pa	2.193370	2.193370	6.580128
Zr_sv	0.000000	0.000000	4.386758
O	2.193370	6.580128	0.000000
O	0.000000	6.580128	2.193370
O	2.193370	4.386758	2.193370
Pa	2.193370	6.580128	2.193370
Zr_sv	0.000000	4.386758	0.000000
O	2.193370	6.580128	4.386758
O	0.000000	6.580128	6.580128
O	2.193370	4.386758	6.580128
Pa	2.193370	6.580128	6.580128
Zr_sv	0.000000	4.386758	4.386758
O	6.580128	2.193370	0.000000
O	4.386758	2.193370	2.193370
O	6.580128	0.000000	2.193370
Pa	6.580128	2.193370	2.193370
Zr_sv	4.386758	0.000000	0.000000
O	6.580128	2.193370	4.386758
O	4.386758	2.193370	6.580128
O	6.580128	0.000000	6.580128
Pa	6.580128	2.193370	6.580128
Zr_sv	4.386758	0.000000	4.386758
O	6.580128	6.580128	0.000000
O	4.386758	6.580128	2.193370
O	6.580128	4.386758	2.193370
Pa	6.580128	6.580128	2.193370
Zr_sv	4.386758	4.386758	0.000000
O	6.580128	6.580128	4.386758
O	4.386758	6.580128	6.580128
O	6.580128	4.386758	6.580128
Pa	6.580128	6.580128	6.580128
Zr_sv	4.386758	4.386758	4.386758
