40

B	0.000000	0.000000	0.000000
F	0.000000	1.910136	1.910136
F	1.910136	0.000000	1.910136
F	1.910136	1.910136	0.000000
O	1.910136	1.910136	1.910136
B	0.000000	0.000000	3.820271
F	0.000000	1.910136	5.730407
F	1.910136	0.000000	5.730407
F	1.910136	1.910136	3.820271
O	1.910136	1.910136	5.730407
B	0.000000	3.820271	0.000000
F	0.000000	5.730407	1.910136
F	1.910136	3.820271	1.910136
F	1.910136	5.730407	0.000000
O	1.910136	5.730407	1.910136
B	0.000000	3.820271	3.820271
F	0.000000	5.730407	5.730407
F	1.910136	3.820271	5.730407
F	1.910136	5.730407	3.820271
O	1.910136	5.730407	5.730407
B	3.820271	0.000000	0.000000
F	3.820271	1.910136	1.910136
F	5.730407	0.000000	1.910136
F	5.730407	1.910136	0.000000
O	5.730407	1.910136	1.910136
B	3.820271	0.000000	3.820271
F	3.820271	1.910136	5.730407
F	5.730407	0.000000	5.730407
F	5.730407	1.910136	3.820271
O	5.730407	1.910136	5.730407
B	3.820271	3.820271	0.000000
F	3.820271	5.730407	1.910136
F	5.730407	3.820271	1.910136
F	5.730407	5.730407	0.000000
O	5.730407	5.730407	1.910136
B	3.820271	3.820271	3.820271
F	3.820271	5.730407	5.730407
F	5.730407	3.820271	5.730407
F	5.730407	5.730407	3.820271
O	5.730407	5.730407	5.730407
