40

B	1.690393	1.690393	1.690393
F	0.000000	1.690393	1.690393
F	1.690393	0.000000	1.690393
F	1.690393	1.690393	0.000000
O	0.000000	0.000000	0.000000
B	1.690393	1.690393	5.071178
F	0.000000	1.690393	5.071178
F	1.690393	0.000000	5.071178
F	1.690393	1.690393	3.380785
O	0.000000	0.000000	3.380785
B	1.690393	5.071178	1.690393
F	0.000000	5.071178	1.690393
F	1.690393	3.380785	1.690393
F	1.690393	5.071178	0.000000
O	0.000000	3.380785	0.000000
B	1.690393	5.071178	5.071178
F	0.000000	5.071178	5.071178
F	1.690393	3.380785	5.071178
F	1.690393	5.071178	3.380785
O	0.000000	3.380785	3.380785
B	5.071178	1.690393	1.690393
F	3.380785	1.690393	1.690393
F	5.071178	0.000000	1.690393
F	5.071178	1.690393	0.000000
O	3.380785	0.000000	0.000000
B	5.071178	1.690393	5.071178
F	3.380785	1.690393	5.071178
F	5.071178	0.000000	5.071178
F	5.071178	1.690393	3.380785
O	3.380785	0.000000	3.380785
B	5.071178	5.071178	1.690393
F	3.380785	5.071178	1.690393
F	5.071178	3.380785	1.690393
F	5.071178	5.071178	0.000000
O	3.380785	3.380785	0.000000
B	5.071178	5.071178	5.071178
F	3.380785	5.071178	5.071178
F	5.071178	3.380785	5.071178
F	5.071178	5.071178	3.380785
O	3.380785	3.380785	3.380785
