40

Co	1.854041	1.854041	1.854041
Er	0.000000	0.000000	0.000000
O	1.854041	1.854041	0.000000
O	1.854041	0.000000	1.854041
O	0.000000	1.854041	1.854041
Co	1.854041	1.854041	5.562124
Er	0.000000	0.000000	3.708083
O	1.854041	1.854041	3.708083
O	1.854041	0.000000	5.562124
O	0.000000	1.854041	5.562124
Co	1.854041	5.562124	1.854041
Er	0.000000	3.708083	0.000000
O	1.854041	5.562124	0.000000
O	1.854041	3.708083	1.854041
O	0.000000	5.562124	1.854041
Co	1.854041	5.562124	5.562124
Er	0.000000	3.708083	3.708083
O	1.854041	5.562124	3.708083
O	1.854041	3.708083	5.562124
O	0.000000	5.562124	5.562124
Co	5.562124	1.854041	1.854041
Er	3.708083	0.000000	0.000000
O	5.562124	1.854041	0.000000
O	5.562124	0.000000	1.854041
O	3.708083	1.854041	1.854041
Co	5.562124	1.854041	5.562124
Er	3.708083	0.000000	3.708083
O	5.562124	1.854041	3.708083
O	5.562124	0.000000	5.562124
O	3.708083	1.854041	5.562124
Co	5.562124	5.562124	1.854041
Er	3.708083	3.708083	0.000000
O	5.562124	5.562124	0.000000
O	5.562124	3.708083	1.854041
O	3.708083	5.562124	1.854041
Co	5.562124	5.562124	5.562124
Er	3.708083	3.708083	3.708083
O	5.562124	5.562124	3.708083
O	5.562124	3.708083	5.562124
O	3.708083	5.562124	5.562124
