40

Co	1.854047	1.854047	1.854047
Er	0.000000	0.000000	0.000000
O	1.854047	1.854047	0.000000
O	1.854047	0.000000	1.854047
O	0.000000	1.854047	1.854047
Co	1.854047	1.854047	5.562141
Er	0.000000	0.000000	3.708094
O	1.854047	1.854047	3.708094
O	1.854047	0.000000	5.562141
O	0.000000	1.854047	5.562141
Co	1.854047	5.562141	1.854047
Er	0.000000	3.708094	0.000000
O	1.854047	5.562141	0.000000
O	1.854047	3.708094	1.854047
O	0.000000	5.562141	1.854047
Co	1.854047	5.562141	5.562141
Er	0.000000	3.708094	3.708094
O	1.854047	5.562141	3.708094
O	1.854047	3.708094	5.562141
O	0.000000	5.562141	5.562141
Co	5.562141	1.854047	1.854047
Er	3.708094	0.000000	0.000000
O	5.562141	1.854047	0.000000
O	5.562141	0.000000	1.854047
O	3.708094	1.854047	1.854047
Co	5.562141	1.854047	5.562141
Er	3.708094	0.000000	3.708094
O	5.562141	1.854047	3.708094
O	5.562141	0.000000	5.562141
O	3.708094	1.854047	5.562141
Co	5.562141	5.562141	1.854047
Er	3.708094	3.708094	0.000000
O	5.562141	5.562141	0.000000
O	5.562141	3.708094	1.854047
O	3.708094	5.562141	1.854047
Co	5.562141	5.562141	5.562141
Er	3.708094	3.708094	3.708094
O	5.562141	5.562141	3.708094
O	5.562141	3.708094	5.562141
O	3.708094	5.562141	5.562141
