112

Ca	0.984467	3.237339	1.875131
Ca	2.970858	2.011562	-1.412061
Mo	-0.130286	-0.172896	3.287192
Mo	-0.802129	2.797347	-1.527829
Mo	2.779792	-0.172896	1.759363
Mo	0.000000	0.000000	0.000000
O	3.042725	4.270503	-1.275167
O	3.819391	0.974035	3.313504
O	0.558662	0.974035	5.025428
O	0.912600	0.978398	1.738236
O	0.013818	4.112811	0.026312
O	0.135934	4.274866	-2.850435
O	3.941507	1.136090	0.436757
O	3.396663	4.274866	-4.562359
Ca	0.723895	2.891546	8.449514
Ca	2.710285	1.665769	5.162322
Mo	-0.390859	-0.518689	9.861576
Mo	-1.062702	2.451554	5.046555
Mo	2.519220	-0.518689	8.333747
Mo	-0.260572	-0.345793	6.574384
O	2.782153	3.924710	5.299217
O	3.558818	0.628242	9.887888
O	0.298090	0.628242	11.599812
O	0.652028	0.632606	8.312620
O	-0.246755	3.767019	6.600696
O	-0.124638	3.929073	3.723949
O	3.680935	0.790297	7.011141
O	3.136090	3.929073	2.012025
Ca	-0.619791	8.832032	-1.180527
Ca	1.366599	7.606255	-4.467718
Mo	-1.734545	5.421797	0.231535
Mo	-2.406388	8.392040	-4.583486
Mo	1.175533	5.421797	-1.296294
Mo	-1.604259	5.594693	-3.055657
O	1.438466	9.865196	-4.330824
O	2.215132	6.568728	0.257847
O	-1.045596	6.568728	1.969771
O	-0.691659	6.573091	-1.317421
O	-1.590441	9.707504	-3.029345
O	-1.468325	9.869559	-5.906092
O	2.337248	6.730783	-2.618900
O	1.792404	9.869559	-7.618016
Ca	-0.880364	8.486240	5.393857
Ca	1.106026	7.260463	2.106665
Mo	-1.995118	5.076004	6.805918
Mo	-2.666961	8.046247	1.990898
Mo	0.914961	5.076004	5.278090
Mo	-1.864831	5.248901	3.518727
O	1.177894	9.519403	2.243559
O	1.954559	6.222936	6.832230
O	-1.306169	6.222936	8.544155
O	-0.952231	6.227299	5.256963
O	-1.851013	9.361712	3.545039
O	-1.728897	9.523766	0.668292
O	2.076676	6.384990	3.955484
O	1.531831	9.523766	-1.043632
Ca	6.804624	3.237339	-1.180527
Ca	8.791014	2.011562	-4.467718
Mo	5.689870	-0.172896	0.231535
Mo	5.018027	2.797347	-4.583486
Mo	8.599948	-0.172896	-1.296294
Mo	5.820156	0.000000	-3.055657
O	8.862881	4.270503	-4.330824
O	9.639547	0.974035	0.257847
O	6.378819	0.974035	1.969771
O	6.732756	0.978398	-1.317421
O	5.833974	4.112811	-3.029345
O	5.956091	4.274866	-5.906092
O	9.761664	1.136090	-2.618900
O	9.216819	4.274866	-7.618016
Ca	6.544051	2.891546	5.393857
Ca	8.530441	1.665769	2.106665
Mo	5.429298	-0.518689	6.805918
Mo	4.757454	2.451554	1.990898
Mo	8.339376	-0.518689	5.278090
Mo	5.559584	-0.345793	3.518727
O	8.602309	3.924710	2.243559
O	9.378975	0.628242	6.832230
O	6.118246	0.628242	8.544155
O	6.472184	0.632606	5.256963
O	5.573402	3.767019	3.545039
O	5.695518	3.929073	0.668292
O	9.501091	0.790297	3.955484
O	8.956247	3.929073	-1.043632
Ca	5.200365	8.832032	-4.236184
Ca	7.186755	7.606255	-7.523376
Mo	4.085611	5.421797	-2.824123
Mo	3.413768	8.392040	-7.639143
Mo	6.995689	5.421797	-4.351951
Mo	4.215897	5.594693	-6.111314
O	7.258623	9.865196	-7.386481
O	8.035288	6.568728	-2.797811
O	4.774560	6.568728	-1.085886
O	5.128497	6.573091	-4.373078
O	4.229715	9.707504	-6.085002
O	4.351832	9.869559	-8.961749
O	8.157405	6.730783	-5.674557
O	7.612560	9.869559	-10.673673
Ca	4.939793	8.486240	2.338200
Ca	6.926183	7.260463	-0.948992
Mo	3.825039	5.076004	3.750261
Mo	3.153196	8.046247	-1.064759
Mo	6.735117	5.076004	2.222433
Mo	3.955325	5.248901	0.463069
O	6.998050	9.519403	-0.812098
O	7.774716	6.222936	3.776573
O	4.513987	6.222936	5.488498
O	4.867925	6.227299	2.201306
O	3.969143	9.361712	0.489381
O	4.091259	9.523766	-2.387365
O	7.896832	6.384990	0.899827
O	7.351988	9.523766	-4.099290
