40

Cr	0.000000	0.000000	0.000000
Cu	1.841981	1.841981	1.841981
O	1.841981	1.841981	0.000000
O	1.841981	0.000000	1.841981
O	0.000000	1.841981	1.841981
Cr	0.000000	0.000000	3.683969
Cu	1.841981	1.841981	5.525949
O	1.841981	1.841981	3.683969
O	1.841981	0.000000	5.525949
O	0.000000	1.841981	5.525949
Cr	0.000000	3.683969	0.000000
Cu	1.841981	5.525949	1.841981
O	1.841981	5.525949	0.000000
O	1.841981	3.683969	1.841981
O	0.000000	5.525949	1.841981
Cr	0.000000	3.683969	3.683969
Cu	1.841981	5.525949	5.525949
O	1.841981	5.525949	3.683969
O	1.841981	3.683969	5.525949
O	0.000000	5.525949	5.525949
Cr	3.683969	0.000000	0.000000
Cu	5.525949	1.841981	1.841981
O	5.525949	1.841981	0.000000
O	5.525949	0.000000	1.841981
O	3.683969	1.841981	1.841981
Cr	3.683969	0.000000	3.683969
Cu	5.525949	1.841981	5.525949
O	5.525949	1.841981	3.683969
O	5.525949	0.000000	5.525949
O	3.683969	1.841981	5.525949
Cr	3.683969	3.683969	0.000000
Cu	5.525949	5.525949	1.841981
O	5.525949	5.525949	0.000000
O	5.525949	3.683969	1.841981
O	3.683969	5.525949	1.841981
Cr	3.683969	3.683969	3.683969
Cu	5.525949	5.525949	5.525949
O	5.525949	5.525949	3.683969
O	5.525949	3.683969	5.525949
O	3.683969	5.525949	5.525949
