40

Ca	0.000000	0.000000	0.000000
O	0.000000	2.124950	2.124950
O	2.124950	0.000000	2.124950
O	2.124950	2.124950	0.000000
Te	2.124950	2.124950	2.124950
Ca	0.000000	0.000000	4.249900
O	0.000000	2.124950	6.374850
O	2.124950	0.000000	6.374850
O	2.124950	2.124950	4.249900
Te	2.124950	2.124950	6.374850
Ca	0.000000	4.249900	0.000000
O	0.000000	6.374850	2.124950
O	2.124950	4.249900	2.124950
O	2.124950	6.374850	0.000000
Te	2.124950	6.374850	2.124950
Ca	0.000000	4.249900	4.249900
O	0.000000	6.374850	6.374850
O	2.124950	4.249900	6.374850
O	2.124950	6.374850	4.249900
Te	2.124950	6.374850	6.374850
Ca	4.249900	0.000000	0.000000
O	4.249900	2.124950	2.124950
O	6.374850	0.000000	2.124950
O	6.374850	2.124950	0.000000
Te	6.374850	2.124950	2.124950
Ca	4.249900	0.000000	4.249900
O	4.249900	2.124950	6.374850
O	6.374850	0.000000	6.374850
O	6.374850	2.124950	4.249900
Te	6.374850	2.124950	6.374850
Ca	4.249900	4.249900	0.000000
O	4.249900	6.374850	2.124950
O	6.374850	4.249900	2.124950
O	6.374850	6.374850	0.000000
Te	6.374850	6.374850	2.124950
Ca	4.249900	4.249900	4.249900
O	4.249900	6.374850	6.374850
O	6.374850	4.249900	6.374850
O	6.374850	6.374850	4.249900
Te	6.374850	6.374850	6.374850
