40

Nd	0.000000	0.000000	0.000000
O	2.200688	2.200688	0.000000
O	2.200688	0.000000	2.200688
O	0.000000	2.200688	2.200688
Pu	2.200688	2.200688	2.200688
Nd	0.000000	0.000000	4.401377
O	2.200688	2.200688	4.401377
O	2.200688	0.000000	6.602065
O	0.000000	2.200688	6.602065
Pu	2.200688	2.200688	6.602065
Nd	0.000000	4.401377	0.000000
O	2.200688	6.602065	0.000000
O	2.200688	4.401377	2.200688
O	0.000000	6.602065	2.200688
Pu	2.200688	6.602065	2.200688
Nd	0.000000	4.401377	4.401377
O	2.200688	6.602065	4.401377
O	2.200688	4.401377	6.602065
O	0.000000	6.602065	6.602065
Pu	2.200688	6.602065	6.602065
Nd	4.401377	0.000000	0.000000
O	6.602065	2.200688	0.000000
O	6.602065	0.000000	2.200688
O	4.401377	2.200688	2.200688
Pu	6.602065	2.200688	2.200688
Nd	4.401377	0.000000	4.401377
O	6.602065	2.200688	4.401377
O	6.602065	0.000000	6.602065
O	4.401377	2.200688	6.602065
Pu	6.602065	2.200688	6.602065
Nd	4.401377	4.401377	0.000000
O	6.602065	6.602065	0.000000
O	6.602065	4.401377	2.200688
O	4.401377	6.602065	2.200688
Pu	6.602065	6.602065	2.200688
Nd	4.401377	4.401377	4.401377
O	6.602065	6.602065	4.401377
O	6.602065	4.401377	6.602065
O	4.401377	6.602065	6.602065
Pu	6.602065	6.602065	6.602065
