40

Ag	1.977412	1.977412	1.977412
Ni	0.000000	0.000000	0.000000
O	1.977412	1.977412	0.000000
O	1.977412	0.000000	1.977412
O	0.000000	1.977412	1.977412
Ag	1.977412	1.977412	5.932224
Ni	0.000000	0.000000	3.954812
O	1.977412	1.977412	3.954812
O	1.977412	0.000000	5.932224
O	0.000000	1.977412	5.932224
Ag	1.977412	5.932224	1.977412
Ni	0.000000	3.954812	0.000000
O	1.977412	5.932224	0.000000
O	1.977412	3.954812	1.977412
O	0.000000	5.932224	1.977412
Ag	1.977412	5.932224	5.932224
Ni	0.000000	3.954812	3.954812
O	1.977412	5.932224	3.954812
O	1.977412	3.954812	5.932224
O	0.000000	5.932224	5.932224
Ag	5.932224	1.977412	1.977412
Ni	3.954812	0.000000	0.000000
O	5.932224	1.977412	0.000000
O	5.932224	0.000000	1.977412
O	3.954812	1.977412	1.977412
Ag	5.932224	1.977412	5.932224
Ni	3.954812	0.000000	3.954812
O	5.932224	1.977412	3.954812
O	5.932224	0.000000	5.932224
O	3.954812	1.977412	5.932224
Ag	5.932224	5.932224	1.977412
Ni	3.954812	3.954812	0.000000
O	5.932224	5.932224	0.000000
O	5.932224	3.954812	1.977412
O	3.954812	5.932224	1.977412
Ag	5.932224	5.932224	5.932224
Ni	3.954812	3.954812	3.954812
O	5.932224	5.932224	3.954812
O	5.932224	3.954812	5.932224
O	3.954812	5.932224	5.932224
