40

Ag	0.000000	0.000000	0.000000
Ni	1.892260	1.892260	1.892260
O	1.892260	1.892260	0.000000
O	1.892260	0.000000	1.892260
O	0.000000	1.892260	1.892260
Ag	0.000000	0.000000	3.784519
Ni	1.892260	1.892260	5.676779
O	1.892260	1.892260	3.784519
O	1.892260	0.000000	5.676779
O	0.000000	1.892260	5.676779
Ag	0.000000	3.784519	0.000000
Ni	1.892260	5.676779	1.892260
O	1.892260	5.676779	0.000000
O	1.892260	3.784519	1.892260
O	0.000000	5.676779	1.892260
Ag	0.000000	3.784519	3.784519
Ni	1.892260	5.676779	5.676779
O	1.892260	5.676779	3.784519
O	1.892260	3.784519	5.676779
O	0.000000	5.676779	5.676779
Ag	3.784519	0.000000	0.000000
Ni	5.676779	1.892260	1.892260
O	5.676779	1.892260	0.000000
O	5.676779	0.000000	1.892260
O	3.784519	1.892260	1.892260
Ag	3.784519	0.000000	3.784519
Ni	5.676779	1.892260	5.676779
O	5.676779	1.892260	3.784519
O	5.676779	0.000000	5.676779
O	3.784519	1.892260	5.676779
Ag	3.784519	3.784519	0.000000
Ni	5.676779	5.676779	1.892260
O	5.676779	5.676779	0.000000
O	5.676779	3.784519	1.892260
O	3.784519	5.676779	1.892260
Ag	3.784519	3.784519	3.784519
Ni	5.676779	5.676779	5.676779
O	5.676779	5.676779	3.784519
O	5.676779	3.784519	5.676779
O	3.784519	5.676779	5.676779
