40

K	2.068500	2.068500	2.068500
Lu	0.000000	0.000000	0.000000
O	2.068500	2.068500	0.000000
O	0.000000	2.068500	2.068500
O	2.068500	0.000000	2.068500
K	2.068500	2.068500	6.205503
Lu	0.000000	0.000000	4.137003
O	2.068500	2.068500	4.137003
O	0.000000	2.068500	6.205503
O	2.068500	0.000000	6.205503
K	2.068500	6.205503	2.068500
Lu	0.000000	4.137003	0.000000
O	2.068500	6.205503	0.000000
O	0.000000	6.205503	2.068500
O	2.068500	4.137003	2.068500
K	2.068500	6.205503	6.205503
Lu	0.000000	4.137003	4.137003
O	2.068500	6.205503	4.137003
O	0.000000	6.205503	6.205503
O	2.068500	4.137003	6.205503
K	6.205503	2.068500	2.068500
Lu	4.137003	0.000000	0.000000
O	6.205503	2.068500	0.000000
O	4.137003	2.068500	2.068500
O	6.205503	0.000000	2.068500
K	6.205503	2.068500	6.205503
Lu	4.137003	0.000000	4.137003
O	6.205503	2.068500	4.137003
O	4.137003	2.068500	6.205503
O	6.205503	0.000000	6.205503
K	6.205503	6.205503	2.068500
Lu	4.137003	4.137003	0.000000
O	6.205503	6.205503	0.000000
O	4.137003	6.205503	2.068500
O	6.205503	4.137003	2.068500
K	6.205503	6.205503	6.205503
Lu	4.137003	4.137003	4.137003
O	6.205503	6.205503	4.137003
O	4.137003	6.205503	6.205503
O	6.205503	4.137003	6.205503
