96

K	1.661870	1.661870	1.661870
K	4.893671	4.893671	1.661870
K	4.893671	1.661870	4.893671
K	1.661870	4.893671	4.893671
K	1.661870	1.661870	4.893671
K	4.893671	4.893671	4.893671
K	4.893671	1.661870	1.661870
K	1.661870	4.893671	1.661870
N	0.000000	0.000000	0.000000
O	3.277771	3.277771	0.000000
O	0.000000	3.277771	3.277771
O	3.277771	0.000000	3.277771
K	1.661870	1.661870	8.217412
K	4.893671	4.893671	8.217412
K	4.893671	1.661870	11.449213
K	1.661870	4.893671	11.449213
K	1.661870	1.661870	11.449213
K	4.893671	4.893671	11.449213
K	4.893671	1.661870	8.217412
K	1.661870	4.893671	8.217412
N	0.000000	0.000000	6.555542
O	3.277771	3.277771	6.555542
O	0.000000	3.277771	9.833313
O	3.277771	0.000000	9.833313
K	1.661870	8.217412	1.661870
K	4.893671	11.449213	1.661870
K	4.893671	8.217412	4.893671
K	1.661870	11.449213	4.893671
K	1.661870	8.217412	4.893671
K	4.893671	11.449213	4.893671
K	4.893671	8.217412	1.661870
K	1.661870	11.449213	1.661870
N	0.000000	6.555542	0.000000
O	3.277771	9.833313	0.000000
O	0.000000	9.833313	3.277771
O	3.277771	6.555542	3.277771
K	1.661870	8.217412	8.217412
K	4.893671	11.449213	8.217412
K	4.893671	8.217412	11.449213
K	1.661870	11.449213	11.449213
K	1.661870	8.217412	11.449213
K	4.893671	11.449213	11.449213
K	4.893671	8.217412	8.217412
K	1.661870	11.449213	8.217412
N	0.000000	6.555542	6.555542
O	3.277771	9.833313	6.555542
O	0.000000	9.833313	9.833313
O	3.277771	6.555542	9.833313
K	8.217412	1.661870	1.661870
K	11.449213	4.893671	1.661870
K	11.449213	1.661870	4.893671
K	8.217412	4.893671	4.893671
K	8.217412	1.661870	4.893671
K	11.449213	4.893671	4.893671
K	11.449213	1.661870	1.661870
K	8.217412	4.893671	1.661870
N	6.555542	0.000000	0.000000
O	9.833313	3.277771	0.000000
O	6.555542	3.277771	3.277771
O	9.833313	0.000000	3.277771
K	8.217412	1.661870	8.217412
K	11.449213	4.893671	8.217412
K	11.449213	1.661870	11.449213
K	8.217412	4.893671	11.449213
K	8.217412	1.661870	11.449213
K	11.449213	4.893671	11.449213
K	11.449213	1.661870	8.217412
K	8.217412	4.893671	8.217412
N	6.555542	0.000000	6.555542
O	9.833313	3.277771	6.555542
O	6.555542	3.277771	9.833313
O	9.833313	0.000000	9.833313
K	8.217412	8.217412	1.661870
K	11.449213	11.449213	1.661870
K	11.449213	8.217412	4.893671
K	8.217412	11.449213	4.893671
K	8.217412	8.217412	4.893671
K	11.449213	11.449213	4.893671
K	11.449213	8.217412	1.661870
K	8.217412	11.449213	1.661870
N	6.555542	6.555542	0.000000
O	9.833313	9.833313	0.000000
O	6.555542	9.833313	3.277771
O	9.833313	6.555542	3.277771
K	8.217412	8.217412	8.217412
K	11.449213	11.449213	8.217412
K	11.449213	8.217412	11.449213
K	8.217412	11.449213	11.449213
K	8.217412	8.217412	11.449213
K	11.449213	11.449213	11.449213
K	11.449213	8.217412	8.217412
K	8.217412	11.449213	8.217412
N	6.555542	6.555542	6.555542
O	9.833313	9.833313	6.555542
O	6.555542	9.833313	9.833313
O	9.833313	6.555542	9.833313
