40

Dy	0.000000	0.000000	0.000000
O	2.059910	2.059910	0.000000
O	0.000000	2.059910	2.059910
O	2.059910	0.000000	2.059910
Zr	2.059910	2.059910	2.059910
Dy	0.000000	0.000000	4.119820
O	2.059910	2.059910	4.119820
O	0.000000	2.059910	6.179730
O	2.059910	0.000000	6.179730
Zr	2.059910	2.059910	6.179730
Dy	0.000000	4.119820	0.000000
O	2.059910	6.179730	0.000000
O	0.000000	6.179730	2.059910
O	2.059910	4.119820	2.059910
Zr	2.059910	6.179730	2.059910
Dy	0.000000	4.119820	4.119820
O	2.059910	6.179730	4.119820
O	0.000000	6.179730	6.179730
O	2.059910	4.119820	6.179730
Zr	2.059910	6.179730	6.179730
Dy	4.119820	0.000000	0.000000
O	6.179730	2.059910	0.000000
O	4.119820	2.059910	2.059910
O	6.179730	0.000000	2.059910
Zr	6.179730	2.059910	2.059910
Dy	4.119820	0.000000	4.119820
O	6.179730	2.059910	4.119820
O	4.119820	2.059910	6.179730
O	6.179730	0.000000	6.179730
Zr	6.179730	2.059910	6.179730
Dy	4.119820	4.119820	0.000000
O	6.179730	6.179730	0.000000
O	4.119820	6.179730	2.059910
O	6.179730	4.119820	2.059910
Zr	6.179730	6.179730	2.059910
Dy	4.119820	4.119820	4.119820
O	6.179730	6.179730	4.119820
O	4.119820	6.179730	6.179730
O	6.179730	4.119820	6.179730
Zr	6.179730	6.179730	6.179730
