112

Ga	0.000000	0.000000	0.000000
Ga	2.311991	-2.312090	-2.312090
O	3.539875	-1.083884	-1.083884
O	-1.084108	1.083884	-3.540305
O	1.084108	-1.083884	-3.540305
O	1.227884	1.228205	-1.228205
O	5.708100	1.083884	-1.083884
O	1.227884	3.395974	-3.395974
O	3.396099	3.395974	-1.228205
O	3.396099	1.228205	-3.395974
Tm	-1.156001	-1.156045	-3.468134
Tm	5.779983	-1.156045	-1.156045
Tm	3.467992	1.156045	-1.156045
Tm	1.156001	1.156045	-3.468134
Ga	4.623986	4.624180	0.000000
Ga	6.935978	2.312091	-2.312090
O	8.163861	3.540296	-1.083884
O	3.539879	5.708065	-3.540305
O	5.708094	3.540296	-3.540305
O	5.851870	5.852386	-1.228205
O	10.332086	5.708065	-1.083884
O	5.851870	8.020154	-3.395974
O	8.020085	8.020154	-1.228205
O	8.020085	5.852386	-3.395974
Tm	3.467986	3.468136	-3.468134
Tm	10.403969	3.468136	-1.156045
Tm	8.091978	5.780225	-1.156045
Tm	5.779987	5.780225	-3.468134
Ga	-4.623986	0.000000	-4.624180
Ga	-2.311995	-2.312090	-6.936270
O	-1.084112	-1.083884	-5.708065
O	-5.708094	1.083884	-8.164485
O	-3.539879	-1.083884	-8.164485
O	-3.396103	1.228205	-5.852386
O	1.084113	1.083884	-5.708065
O	-3.396103	3.395974	-8.020154
O	-1.227888	3.395974	-5.852386
O	-1.227888	1.228205	-8.020154
Tm	-5.779987	-1.156045	-8.092315
Tm	1.155996	-1.156045	-5.780225
Tm	-1.155995	1.156045	-5.780225
Tm	-3.467986	1.156045	-8.092315
Ga	0.000000	4.624180	-4.624180
Ga	2.311991	2.312091	-6.936270
O	3.539875	3.540296	-5.708065
O	-1.084108	5.708065	-8.164485
O	1.084108	3.540296	-8.164485
O	1.227884	5.852386	-5.852386
O	5.708100	5.708065	-5.708065
O	1.227884	8.020154	-8.020154
O	3.396099	8.020154	-5.852386
O	3.396099	5.852386	-8.020154
Tm	-1.156001	3.468136	-8.092315
Tm	5.779983	3.468136	-5.780225
Tm	3.467992	5.780225	-5.780225
Tm	1.156001	5.780225	-8.092315
Ga	4.623986	-4.624180	0.000000
Ga	6.935978	-6.936270	-2.312090
O	8.163861	-5.708065	-1.083884
O	3.539879	-3.540296	-3.540305
O	5.708094	-5.708065	-3.540305
O	5.851870	-3.395975	-1.228205
O	10.332086	-3.540296	-1.083884
O	5.851870	-1.228207	-3.395974
O	8.020085	-1.228207	-1.228205
O	8.020085	-3.395975	-3.395974
Tm	3.467986	-5.780225	-3.468134
Tm	10.403969	-5.780225	-1.156045
Tm	8.091978	-3.468136	-1.156045
Tm	5.779987	-3.468136	-3.468134
Ga	9.247973	0.000000	0.000000
Ga	11.559964	-2.312090	-2.312090
O	12.787848	-1.083884	-1.083884
O	8.163865	1.083884	-3.540305
O	10.332081	-1.083884	-3.540305
O	10.475857	1.228205	-1.228205
O	14.956073	1.083884	-1.083884
O	10.475857	3.395974	-3.395974
O	12.644072	3.395974	-1.228205
O	12.644072	1.228205	-3.395974
Tm	8.091972	-1.156045	-3.468134
Tm	15.027956	-1.156045	-1.156045
Tm	12.715965	1.156045	-1.156045
Tm	10.403974	1.156045	-3.468134
Ga	0.000000	-4.624180	-4.624180
Ga	2.311991	-6.936270	-6.936270
O	3.539875	-5.708065	-5.708065
O	-1.084108	-3.540296	-8.164485
O	1.084108	-5.708065	-8.164485
O	1.227884	-3.395975	-5.852386
O	5.708100	-3.540296	-5.708065
O	1.227884	-1.228207	-8.020154
O	3.396099	-1.228207	-5.852386
O	3.396099	-3.395975	-8.020154
Tm	-1.156001	-5.780225	-8.092315
Tm	5.779983	-5.780225	-5.780225
Tm	3.467992	-3.468136	-5.780225
Tm	1.156001	-3.468136	-8.092315
Ga	4.623986	0.000000	-4.624180
Ga	6.935978	-2.312090	-6.936270
O	8.163861	-1.083884	-5.708065
O	3.539879	1.083884	-8.164485
O	5.708094	-1.083884	-8.164485
O	5.851870	1.228205	-5.852386
O	10.332086	1.083884	-5.708065
O	5.851870	3.395974	-8.020154
O	8.020085	3.395974	-5.852386
O	8.020085	1.228205	-8.020154
Tm	3.467986	-1.156045	-8.092315
Tm	10.403969	-1.156045	-5.780225
Tm	8.091978	1.156045	-5.780225
Tm	5.779987	1.156045	-8.092315
