40

B	0.000000	0.000000	0.000000
Ge	1.865152	1.865152	1.865152
O	0.000000	1.865152	1.865152
O	1.865152	0.000000	1.865152
O	1.865152	1.865152	0.000000
B	0.000000	0.000000	3.730305
Ge	1.865152	1.865152	5.595457
O	0.000000	1.865152	5.595457
O	1.865152	0.000000	5.595457
O	1.865152	1.865152	3.730305
B	0.000000	3.730305	0.000000
Ge	1.865152	5.595457	1.865152
O	0.000000	5.595457	1.865152
O	1.865152	3.730305	1.865152
O	1.865152	5.595457	0.000000
B	0.000000	3.730305	3.730305
Ge	1.865152	5.595457	5.595457
O	0.000000	5.595457	5.595457
O	1.865152	3.730305	5.595457
O	1.865152	5.595457	3.730305
B	3.730305	0.000000	0.000000
Ge	5.595457	1.865152	1.865152
O	3.730305	1.865152	1.865152
O	5.595457	0.000000	1.865152
O	5.595457	1.865152	0.000000
B	3.730305	0.000000	3.730305
Ge	5.595457	1.865152	5.595457
O	3.730305	1.865152	5.595457
O	5.595457	0.000000	5.595457
O	5.595457	1.865152	3.730305
B	3.730305	3.730305	0.000000
Ge	5.595457	5.595457	1.865152
O	3.730305	5.595457	1.865152
O	5.595457	3.730305	1.865152
O	5.595457	5.595457	0.000000
B	3.730305	3.730305	3.730305
Ge	5.595457	5.595457	5.595457
O	3.730305	5.595457	5.595457
O	5.595457	3.730305	5.595457
O	5.595457	5.595457	3.730305
