288

Mn	0.000000	0.000000	0.000000
Mn	3.728188	3.728188	0.000000
Mn	3.728188	0.000000	3.728188
Mn	0.000000	3.728188	3.728188
N	6.174750	2.446562	1.281626
N	5.009814	6.174750	1.281626
N	2.446562	2.446562	2.446562
N	1.281626	6.174750	2.446562
N	6.174750	1.281626	5.009814
N	5.009814	5.009814	5.009814
N	2.446562	1.281626	6.174750
N	1.281626	5.009814	6.174750
O	5.367391	2.292088	0.325603
O	5.817173	6.020276	0.325603
O	7.130773	1.639203	1.436100
O	4.053791	5.367391	1.436100
O	2.292088	3.402585	1.639203
O	1.436100	7.130773	1.639203
O	6.020276	3.402585	2.088985
O	5.164289	7.130773	2.088985
O	3.402585	1.639203	2.292088
O	0.325603	5.367391	2.292088
O	1.639203	2.292088	3.402585
O	2.088985	6.020276	3.402585
O	5.367391	1.436100	4.053791
O	5.817173	5.164289	4.053791
O	7.130773	2.088985	5.164289
O	4.053791	5.817173	5.164289
O	2.292088	0.325603	5.367391
O	1.436100	4.053791	5.367391
O	6.020276	0.325603	5.817173
O	5.164289	4.053791	5.817173
O	3.402585	2.088985	6.020276
O	0.325603	5.817173	6.020276
O	1.639203	1.436100	7.130773
O	2.088985	5.164289	7.130773
Mn	0.000000	0.000000	7.456376
Mn	3.728188	3.728188	7.456376
Mn	3.728188	0.000000	11.184564
Mn	0.000000	3.728188	11.184564
N	6.174750	2.446562	8.738003
N	5.009814	6.174750	8.738003
N	2.446562	2.446562	9.902938
N	1.281626	6.174750	9.902938
N	6.174750	1.281626	12.466191
N	5.009814	5.009814	12.466191
N	2.446562	1.281626	13.631126
N	1.281626	5.009814	13.631126
O	5.367391	2.292088	7.781979
O	5.817173	6.020276	7.781979
O	7.130773	1.639203	8.892477
O	4.053791	5.367391	8.892477
O	2.292088	3.402585	9.095579
O	1.436100	7.130773	9.095579
O	6.020276	3.402585	9.545361
O	5.164289	7.130773	9.545361
O	3.402585	1.639203	9.748464
O	0.325603	5.367391	9.748464
O	1.639203	2.292088	10.858961
O	2.088985	6.020276	10.858961
O	5.367391	1.436100	11.510167
O	5.817173	5.164289	11.510167
O	7.130773	2.088985	12.620665
O	4.053791	5.817173	12.620665
O	2.292088	0.325603	12.823767
O	1.436100	4.053791	12.823767
O	6.020276	0.325603	13.273550
O	5.164289	4.053791	13.273550
O	3.402585	2.088985	13.476652
O	0.325603	5.817173	13.476652
O	1.639203	1.436100	14.587149
O	2.088985	5.164289	14.587149
Mn	0.000000	7.456376	0.000000
Mn	3.728188	11.184564	0.000000
Mn	3.728188	7.456376	3.728188
Mn	0.000000	11.184564	3.728188
N	6.174750	9.902938	1.281626
N	5.009814	13.631126	1.281626
N	2.446562	9.902938	2.446562
N	1.281626	13.631126	2.446562
N	6.174750	8.738003	5.009814
N	5.009814	12.466191	5.009814
N	2.446562	8.738003	6.174750
N	1.281626	12.466191	6.174750
O	5.367391	9.748464	0.325603
O	5.817173	13.476652	0.325603
O	7.130773	9.095579	1.436100
O	4.053791	12.823767	1.436100
O	2.292088	10.858961	1.639203
O	1.436100	14.587149	1.639203
O	6.020276	10.858961	2.088985
O	5.164289	14.587149	2.088985
O	3.402585	9.095579	2.292088
O	0.325603	12.823767	2.292088
O	1.639203	9.748464	3.402585
O	2.088985	13.476652	3.402585
O	5.367391	8.892477	4.053791
O	5.817173	12.620665	4.053791
O	7.130773	9.545361	5.164289
O	4.053791	13.273550	5.164289
O	2.292088	7.781979	5.367391
O	1.436100	11.510167	5.367391
O	6.020276	7.781979	5.817173
O	5.164289	11.510167	5.817173
O	3.402585	9.545361	6.020276
O	0.325603	13.273550	6.020276
O	1.639203	8.892477	7.130773
O	2.088985	12.620665	7.130773
Mn	0.000000	7.456376	7.456376
Mn	3.728188	11.184564	7.456376
Mn	3.728188	7.456376	11.184564
Mn	0.000000	11.184564	11.184564
N	6.174750	9.902938	8.738003
N	5.009814	13.631126	8.738003
N	2.446562	9.902938	9.902938
N	1.281626	13.631126	9.902938
N	6.174750	8.738003	12.466191
N	5.009814	12.466191	12.466191
N	2.446562	8.738003	13.631126
N	1.281626	12.466191	13.631126
O	5.367391	9.748464	7.781979
O	5.817173	13.476652	7.781979
O	7.130773	9.095579	8.892477
O	4.053791	12.823767	8.892477
O	2.292088	10.858961	9.095579
O	1.436100	14.587149	9.095579
O	6.020276	10.858961	9.545361
O	5.164289	14.587149	9.545361
O	3.402585	9.095579	9.748464
O	0.325603	12.823767	9.748464
O	1.639203	9.748464	10.858961
O	2.088985	13.476652	10.858961
O	5.367391	8.892477	11.510167
O	5.817173	12.620665	11.510167
O	7.130773	9.545361	12.620665
O	4.053791	13.273550	12.620665
O	2.292088	7.781979	12.823767
O	1.436100	11.510167	12.823767
O	6.020276	7.781979	13.273550
O	5.164289	11.510167	13.273550
O	3.402585	9.545361	13.476652
O	0.325603	13.273550	13.476652
O	1.639203	8.892477	14.587149
O	2.088985	12.620665	14.587149
Mn	7.456376	0.000000	0.000000
Mn	11.184564	3.728188	0.000000
Mn	11.184564	0.000000	3.728188
Mn	7.456376	3.728188	3.728188
N	13.631126	2.446562	1.281626
N	12.466191	6.174750	1.281626
N	9.902938	2.446562	2.446562
N	8.738003	6.174750	2.446562
N	13.631126	1.281626	5.009814
N	12.466191	5.009814	5.009814
N	9.902938	1.281626	6.174750
N	8.738003	5.009814	6.174750
O	12.823767	2.292088	0.325603
O	13.273550	6.020276	0.325603
O	14.587149	1.639203	1.436100
O	11.510167	5.367391	1.436100
O	9.748464	3.402585	1.639203
O	8.892477	7.130773	1.639203
O	13.476652	3.402585	2.088985
O	12.620665	7.130773	2.088985
O	10.858961	1.639203	2.292088
O	7.781979	5.367391	2.292088
O	9.095579	2.292088	3.402585
O	9.545361	6.020276	3.402585
O	12.823767	1.436100	4.053791
O	13.273550	5.164289	4.053791
O	14.587149	2.088985	5.164289
O	11.510167	5.817173	5.164289
O	9.748464	0.325603	5.367391
O	8.892477	4.053791	5.367391
O	13.476652	0.325603	5.817173
O	12.620665	4.053791	5.817173
O	10.858961	2.088985	6.020276
O	7.781979	5.817173	6.020276
O	9.095579	1.436100	7.130773
O	9.545361	5.164289	7.130773
Mn	7.456376	0.000000	7.456376
Mn	11.184564	3.728188	7.456376
Mn	11.184564	0.000000	11.184564
Mn	7.456376	3.728188	11.184564
N	13.631126	2.446562	8.738003
N	12.466191	6.174750	8.738003
N	9.902938	2.446562	9.902938
N	8.738003	6.174750	9.902938
N	13.631126	1.281626	12.466191
N	12.466191	5.009814	12.466191
N	9.902938	1.281626	13.631126
N	8.738003	5.009814	13.631126
O	12.823767	2.292088	7.781979
O	13.273550	6.020276	7.781979
O	14.587149	1.639203	8.892477
O	11.510167	5.367391	8.892477
O	9.748464	3.402585	9.095579
O	8.892477	7.130773	9.095579
O	13.476652	3.402585	9.545361
O	12.620665	7.130773	9.545361
O	10.858961	1.639203	9.748464
O	7.781979	5.367391	9.748464
O	9.095579	2.292088	10.858961
O	9.545361	6.020276	10.858961
O	12.823767	1.436100	11.510167
O	13.273550	5.164289	11.510167
O	14.587149	2.088985	12.620665
O	11.510167	5.817173	12.620665
O	9.748464	0.325603	12.823767
O	8.892477	4.053791	12.823767
O	13.476652	0.325603	13.273550
O	12.620665	4.053791	13.273550
O	10.858961	2.088985	13.476652
O	7.781979	5.817173	13.476652
O	9.095579	1.436100	14.587149
O	9.545361	5.164289	14.587149
Mn	7.456376	7.456376	0.000000
Mn	11.184564	11.184564	0.000000
Mn	11.184564	7.456376	3.728188
Mn	7.456376	11.184564	3.728188
N	13.631126	9.902938	1.281626
N	12.466191	13.631126	1.281626
N	9.902938	9.902938	2.446562
N	8.738003	13.631126	2.446562
N	13.631126	8.738003	5.009814
N	12.466191	12.466191	5.009814
N	9.902938	8.738003	6.174750
N	8.738003	12.466191	6.174750
O	12.823767	9.748464	0.325603
O	13.273550	13.476652	0.325603
O	14.587149	9.095579	1.436100
O	11.510167	12.823767	1.436100
O	9.748464	10.858961	1.639203
O	8.892477	14.587149	1.639203
O	13.476652	10.858961	2.088985
O	12.620665	14.587149	2.088985
O	10.858961	9.095579	2.292088
O	7.781979	12.823767	2.292088
O	9.095579	9.748464	3.402585
O	9.545361	13.476652	3.402585
O	12.823767	8.892477	4.053791
O	13.273550	12.620665	4.053791
O	14.587149	9.545361	5.164289
O	11.510167	13.273550	5.164289
O	9.748464	7.781979	5.367391
O	8.892477	11.510167	5.367391
O	13.476652	7.781979	5.817173
O	12.620665	11.510167	5.817173
O	10.858961	9.545361	6.020276
O	7.781979	13.273550	6.020276
O	9.095579	8.892477	7.130773
O	9.545361	12.620665	7.130773
Mn	7.456376	7.456376	7.456376
Mn	11.184564	11.184564	7.456376
Mn	11.184564	7.456376	11.184564
Mn	7.456376	11.184564	11.184564
N	13.631126	9.902938	8.738003
N	12.466191	13.631126	8.738003
N	9.902938	9.902938	9.902938
N	8.738003	13.631126	9.902938
N	13.631126	8.738003	12.466191
N	12.466191	12.466191	12.466191
N	9.902938	8.738003	13.631126
N	8.738003	12.466191	13.631126
O	12.823767	9.748464	7.781979
O	13.273550	13.476652	7.781979
O	14.587149	9.095579	8.892477
O	11.510167	12.823767	8.892477
O	9.748464	10.858961	9.095579
O	8.892477	14.587149	9.095579
O	13.476652	10.858961	9.545361
O	12.620665	14.587149	9.545361
O	10.858961	9.095579	9.748464
O	7.781979	12.823767	9.748464
O	9.095579	9.748464	10.858961
O	9.545361	13.476652	10.858961
O	12.823767	8.892477	11.510167
O	13.273550	12.620665	11.510167
O	14.587149	9.545361	12.620665
O	11.510167	13.273550	12.620665
O	9.748464	7.781979	12.823767
O	8.892477	11.510167	12.823767
O	13.476652	7.781979	13.273550
O	12.620665	11.510167	13.273550
O	10.858961	9.545361	13.476652
O	7.781979	13.273550	13.476652
O	9.095579	8.892477	14.587149
O	9.545361	12.620665	14.587149
