40

O	2.000909	2.000909	0.000000
O	0.000000	2.000909	2.000909
O	2.000909	0.000000	2.000909
Pd	2.000909	2.000909	2.000909
U	0.000000	0.000000	0.000000
O	2.000909	2.000909	4.001818
O	0.000000	2.000909	6.002727
O	2.000909	0.000000	6.002727
Pd	2.000909	2.000909	6.002727
U	0.000000	0.000000	4.001818
O	2.000909	6.002727	0.000000
O	0.000000	6.002727	2.000909
O	2.000909	4.001818	2.000909
Pd	2.000909	6.002727	2.000909
U	0.000000	4.001818	0.000000
O	2.000909	6.002727	4.001818
O	0.000000	6.002727	6.002727
O	2.000909	4.001818	6.002727
Pd	2.000909	6.002727	6.002727
U	0.000000	4.001818	4.001818
O	6.002727	2.000909	0.000000
O	4.001818	2.000909	2.000909
O	6.002727	0.000000	2.000909
Pd	6.002727	2.000909	2.000909
U	4.001818	0.000000	0.000000
O	6.002727	2.000909	4.001818
O	4.001818	2.000909	6.002727
O	6.002727	0.000000	6.002727
Pd	6.002727	2.000909	6.002727
U	4.001818	0.000000	4.001818
O	6.002727	6.002727	0.000000
O	4.001818	6.002727	2.000909
O	6.002727	4.001818	2.000909
Pd	6.002727	6.002727	2.000909
U	4.001818	4.001818	0.000000
O	6.002727	6.002727	4.001818
O	4.001818	6.002727	6.002727
O	6.002727	4.001818	6.002727
Pd	6.002727	6.002727	6.002727
U	4.001818	4.001818	4.001818
