40

Be	0.000000	0.000000	0.000000
Na	1.953285	1.953285	1.953285
O	1.953285	1.953285	0.000000
O	1.953285	0.000000	1.953285
O	0.000000	1.953285	1.953285
Be	0.000000	0.000000	3.906563
Na	1.953285	1.953285	5.859849
O	1.953285	1.953285	3.906563
O	1.953285	0.000000	5.859849
O	0.000000	1.953285	5.859849
Be	0.000000	3.906563	0.000000
Na	1.953285	5.859849	1.953285
O	1.953285	5.859849	0.000000
O	1.953285	3.906563	1.953285
O	0.000000	5.859849	1.953285
Be	0.000000	3.906563	3.906563
Na	1.953285	5.859849	5.859849
O	1.953285	5.859849	3.906563
O	1.953285	3.906563	5.859849
O	0.000000	5.859849	5.859849
Be	3.906563	0.000000	0.000000
Na	5.859849	1.953285	1.953285
O	5.859849	1.953285	0.000000
O	5.859849	0.000000	1.953285
O	3.906563	1.953285	1.953285
Be	3.906563	0.000000	3.906563
Na	5.859849	1.953285	5.859849
O	5.859849	1.953285	3.906563
O	5.859849	0.000000	5.859849
O	3.906563	1.953285	5.859849
Be	3.906563	3.906563	0.000000
Na	5.859849	5.859849	1.953285
O	5.859849	5.859849	0.000000
O	5.859849	3.906563	1.953285
O	3.906563	5.859849	1.953285
Be	3.906563	3.906563	3.906563
Na	5.859849	5.859849	5.859849
O	5.859849	5.859849	3.906563
O	5.859849	3.906563	5.859849
O	3.906563	5.859849	5.859849
