112

O	3.565150	-1.154354	-1.154354
O	-1.154638	1.154354	-3.566227
O	1.154638	-1.154354	-3.566227
O	1.205256	1.205937	-1.205937
O	5.874426	1.154354	-1.154354
O	1.205256	3.514644	-3.514645
O	3.514532	3.514644	-1.205937
O	3.514532	1.205937	-3.514645
Te	0.000000	0.000000	0.000000
Te	2.359894	-2.360291	-2.360291
Yb	-1.179947	-1.180145	-3.540436
Yb	3.539841	1.180145	-1.180145
Yb	5.899735	-1.180145	-1.180145
Yb	1.179947	1.180145	-3.540436
O	8.284939	3.566227	-1.154354
O	3.565150	5.874935	-3.566227
O	5.874426	3.566227	-3.566227
O	5.925045	5.926518	-1.205937
O	10.594215	5.874935	-1.154354
O	5.925045	8.235226	-3.514645
O	8.234320	8.235226	-1.205937
O	8.234320	5.926518	-3.514645
Te	4.719788	4.720581	0.000000
Te	7.079683	2.360291	-2.360291
Yb	3.539841	3.540436	-3.540436
Yb	8.259630	5.900726	-1.180145
Yb	10.619524	3.540436	-1.180145
Yb	5.899735	5.900726	-3.540436
O	-1.154638	-1.154354	-5.874935
O	-5.874426	1.154354	-8.286808
O	-3.565150	-1.154354	-8.286808
O	-3.514532	1.205937	-5.926518
O	1.154638	1.154354	-5.874935
O	-3.514532	3.514644	-8.235226
O	-1.205256	3.514644	-5.926518
O	-1.205256	1.205937	-8.235226
Te	-4.719788	0.000000	-4.720581
Te	-2.359894	-2.360291	-7.080872
Yb	-5.899735	-1.180145	-8.261017
Yb	-1.179947	1.180145	-5.900726
Yb	1.179947	-1.180145	-5.900726
Yb	-3.539841	1.180145	-8.261017
O	3.565150	3.566227	-5.874935
O	-1.154638	5.874935	-8.286808
O	1.154638	3.566227	-8.286808
O	1.205256	5.926518	-5.926518
O	5.874426	5.874935	-5.874935
O	1.205256	8.235226	-8.235226
O	3.514532	8.235226	-5.926518
O	3.514532	5.926518	-8.235226
Te	0.000000	4.720581	-4.720581
Te	2.359894	2.360291	-7.080872
Yb	-1.179947	3.540436	-8.261017
Yb	3.539841	5.900726	-5.900726
Yb	5.899735	3.540436	-5.900726
Yb	1.179947	5.900726	-8.261017
O	8.284939	-5.874935	-1.154354
O	3.565150	-3.566227	-3.566227
O	5.874426	-5.874935	-3.566227
O	5.925045	-3.514645	-1.205937
O	10.594215	-3.566227	-1.154354
O	5.925045	-1.205937	-3.514645
O	8.234320	-1.205937	-1.205937
O	8.234320	-3.514645	-3.514645
Te	4.719788	-4.720581	0.000000
Te	7.079683	-7.080872	-2.360291
Yb	3.539841	-5.900726	-3.540436
Yb	8.259630	-3.540436	-1.180145
Yb	10.619524	-5.900726	-1.180145
Yb	5.899735	-3.540436	-3.540436
O	13.004727	-1.154354	-1.154354
O	8.284939	1.154354	-3.566227
O	10.594215	-1.154354	-3.566227
O	10.644833	1.205937	-1.205937
O	15.314003	1.154354	-1.154354
O	10.644833	3.514644	-3.514645
O	12.954109	3.514644	-1.205937
O	12.954109	1.205937	-3.514645
Te	9.439577	0.000000	0.000000
Te	11.799471	-2.360291	-2.360291
Yb	8.259630	-1.180145	-3.540436
Yb	12.979418	1.180145	-1.180145
Yb	15.339312	-1.180145	-1.180145
Yb	10.619524	1.180145	-3.540436
O	3.565150	-5.874935	-5.874935
O	-1.154638	-3.566227	-8.286808
O	1.154638	-5.874935	-8.286808
O	1.205256	-3.514645	-5.926518
O	5.874426	-3.566227	-5.874935
O	1.205256	-1.205937	-8.235226
O	3.514532	-1.205937	-5.926518
O	3.514532	-3.514645	-8.235226
Te	0.000000	-4.720581	-4.720581
Te	2.359894	-7.080872	-7.080872
Yb	-1.179947	-5.900726	-8.261017
Yb	3.539841	-3.540436	-5.900726
Yb	5.899735	-5.900726	-5.900726
Yb	1.179947	-3.540436	-8.261017
O	8.284939	-1.154354	-5.874935
O	3.565150	1.154354	-8.286808
O	5.874426	-1.154354	-8.286808
O	5.925045	1.205937	-5.926518
O	10.594215	1.154354	-5.874935
O	5.925045	3.514644	-8.235226
O	8.234320	3.514644	-5.926518
O	8.234320	1.205937	-8.235226
Te	4.719788	0.000000	-4.720581
Te	7.079683	-2.360291	-7.080872
Yb	3.539841	-1.180145	-8.261017
Yb	8.259630	1.180145	-5.900726
Yb	10.619524	-1.180145	-5.900726
Yb	5.899735	1.180145	-8.261017
