40

Ag	0.000000	0.000000	0.000000
O	1.947110	0.000000	1.947110
O	0.000000	1.947110	1.947110
O	1.947110	1.947110	0.000000
Rh	1.947110	1.947110	1.947110
Ag	0.000000	0.000000	3.894219
O	1.947110	0.000000	5.841329
O	0.000000	1.947110	5.841329
O	1.947110	1.947110	3.894219
Rh	1.947110	1.947110	5.841329
Ag	0.000000	3.894219	0.000000
O	1.947110	3.894219	1.947110
O	0.000000	5.841329	1.947110
O	1.947110	5.841329	0.000000
Rh	1.947110	5.841329	1.947110
Ag	0.000000	3.894219	3.894219
O	1.947110	3.894219	5.841329
O	0.000000	5.841329	5.841329
O	1.947110	5.841329	3.894219
Rh	1.947110	5.841329	5.841329
Ag	3.894219	0.000000	0.000000
O	5.841329	0.000000	1.947110
O	3.894219	1.947110	1.947110
O	5.841329	1.947110	0.000000
Rh	5.841329	1.947110	1.947110
Ag	3.894219	0.000000	3.894219
O	5.841329	0.000000	5.841329
O	3.894219	1.947110	5.841329
O	5.841329	1.947110	3.894219
Rh	5.841329	1.947110	5.841329
Ag	3.894219	3.894219	0.000000
O	5.841329	3.894219	1.947110
O	3.894219	5.841329	1.947110
O	5.841329	5.841329	0.000000
Rh	5.841329	5.841329	1.947110
Ag	3.894219	3.894219	3.894219
O	5.841329	3.894219	5.841329
O	3.894219	5.841329	5.841329
O	5.841329	5.841329	3.894219
Rh	5.841329	5.841329	5.841329
