40

O	2.166026	2.166026	0.000000
O	2.166026	0.000000	2.166026
O	0.000000	2.166026	2.166026
Rb	2.166026	2.166026	2.166026
Sn	0.000000	0.000000	0.000000
O	2.166026	2.166026	4.332053
O	2.166026	0.000000	6.498080
O	0.000000	2.166026	6.498080
Rb	2.166026	2.166026	6.498080
Sn	0.000000	0.000000	4.332053
O	2.166026	6.498080	0.000000
O	2.166026	4.332053	2.166026
O	0.000000	6.498080	2.166026
Rb	2.166026	6.498080	2.166026
Sn	0.000000	4.332053	0.000000
O	2.166026	6.498080	4.332053
O	2.166026	4.332053	6.498080
O	0.000000	6.498080	6.498080
Rb	2.166026	6.498080	6.498080
Sn	0.000000	4.332053	4.332053
O	6.498080	2.166026	0.000000
O	6.498080	0.000000	2.166026
O	4.332053	2.166026	2.166026
Rb	6.498080	2.166026	2.166026
Sn	4.332053	0.000000	0.000000
O	6.498080	2.166026	4.332053
O	6.498080	0.000000	6.498080
O	4.332053	2.166026	6.498080
Rb	6.498080	2.166026	6.498080
Sn	4.332053	0.000000	4.332053
O	6.498080	6.498080	0.000000
O	6.498080	4.332053	2.166026
O	4.332053	6.498080	2.166026
Rb	6.498080	6.498080	2.166026
Sn	4.332053	4.332053	0.000000
O	6.498080	6.498080	4.332053
O	6.498080	4.332053	6.498080
O	4.332053	6.498080	6.498080
Rb	6.498080	6.498080	6.498080
Sn	4.332053	4.332053	4.332053
