40

O	1.992850	1.992850	0.000000
O	0.000000	1.992850	1.992850
O	1.992850	0.000000	1.992850
Sc_sv	1.992850	1.992850	1.992850
Tb_3	0.000000	0.000000	0.000000
O	1.992850	1.992850	3.985695
O	0.000000	1.992850	5.978545
O	1.992850	0.000000	5.978545
Sc_sv	1.992850	1.992850	5.978545
Tb_3	0.000000	0.000000	3.985695
O	1.992850	5.978545	0.000000
O	0.000000	5.978545	1.992850
O	1.992850	3.985695	1.992850
Sc_sv	1.992850	5.978545	1.992850
Tb_3	0.000000	3.985695	0.000000
O	1.992850	5.978545	3.985695
O	0.000000	5.978545	5.978545
O	1.992850	3.985695	5.978545
Sc_sv	1.992850	5.978545	5.978545
Tb_3	0.000000	3.985695	3.985695
O	5.978545	1.992850	0.000000
O	3.985695	1.992850	1.992850
O	5.978545	0.000000	1.992850
Sc_sv	5.978545	1.992850	1.992850
Tb_3	3.985695	0.000000	0.000000
O	5.978545	1.992850	3.985695
O	3.985695	1.992850	5.978545
O	5.978545	0.000000	5.978545
Sc_sv	5.978545	1.992850	5.978545
Tb_3	3.985695	0.000000	3.985695
O	5.978545	5.978545	0.000000
O	3.985695	5.978545	1.992850
O	5.978545	3.985695	1.992850
Sc_sv	5.978545	5.978545	1.992850
Tb_3	3.985695	3.985695	0.000000
O	5.978545	5.978545	3.985695
O	3.985695	5.978545	5.978545
O	5.978545	3.985695	5.978545
Sc_sv	5.978545	5.978545	5.978545
Tb_3	3.985695	3.985695	3.985695
