40

Hf	2.039530	2.039530	2.039530
O	2.039530	2.039530	0.000000
O	0.000000	2.039530	2.039530
O	2.039530	0.000000	2.039530
Sm	0.000000	0.000000	0.000000
Hf	2.039530	2.039530	6.118589
O	2.039530	2.039530	4.079059
O	0.000000	2.039530	6.118589
O	2.039530	0.000000	6.118589
Sm	0.000000	0.000000	4.079059
Hf	2.039530	6.118589	2.039530
O	2.039530	6.118589	0.000000
O	0.000000	6.118589	2.039530
O	2.039530	4.079059	2.039530
Sm	0.000000	4.079059	0.000000
Hf	2.039530	6.118589	6.118589
O	2.039530	6.118589	4.079059
O	0.000000	6.118589	6.118589
O	2.039530	4.079059	6.118589
Sm	0.000000	4.079059	4.079059
Hf	6.118589	2.039530	2.039530
O	6.118589	2.039530	0.000000
O	4.079059	2.039530	2.039530
O	6.118589	0.000000	2.039530
Sm	4.079059	0.000000	0.000000
Hf	6.118589	2.039530	6.118589
O	6.118589	2.039530	4.079059
O	4.079059	2.039530	6.118589
O	6.118589	0.000000	6.118589
Sm	4.079059	0.000000	4.079059
Hf	6.118589	6.118589	2.039530
O	6.118589	6.118589	0.000000
O	4.079059	6.118589	2.039530
O	6.118589	4.079059	2.039530
Sm	4.079059	4.079059	0.000000
Hf	6.118589	6.118589	6.118589
O	6.118589	6.118589	4.079059
O	4.079059	6.118589	6.118589
O	6.118589	4.079059	6.118589
Sm	4.079059	4.079059	4.079059
