40

As	1.970081	1.970081	1.970081
O	0.000000	1.970081	1.970081
O	1.970081	0.000000	1.970081
O	1.970081	1.970081	0.000000
W	0.000000	0.000000	0.000000
As	1.970081	1.970081	5.910242
O	0.000000	1.970081	5.910242
O	1.970081	0.000000	5.910242
O	1.970081	1.970081	3.940162
W	0.000000	0.000000	3.940162
As	1.970081	5.910242	1.970081
O	0.000000	5.910242	1.970081
O	1.970081	3.940162	1.970081
O	1.970081	5.910242	0.000000
W	0.000000	3.940162	0.000000
As	1.970081	5.910242	5.910242
O	0.000000	5.910242	5.910242
O	1.970081	3.940162	5.910242
O	1.970081	5.910242	3.940162
W	0.000000	3.940162	3.940162
As	5.910242	1.970081	1.970081
O	3.940162	1.970081	1.970081
O	5.910242	0.000000	1.970081
O	5.910242	1.970081	0.000000
W	3.940162	0.000000	0.000000
As	5.910242	1.970081	5.910242
O	3.940162	1.970081	5.910242
O	5.910242	0.000000	5.910242
O	5.910242	1.970081	3.940162
W	3.940162	0.000000	3.940162
As	5.910242	5.910242	1.970081
O	3.940162	5.910242	1.970081
O	5.910242	3.940162	1.970081
O	5.910242	5.910242	0.000000
W	3.940162	3.940162	0.000000
As	5.910242	5.910242	5.910242
O	3.940162	5.910242	5.910242
O	5.910242	3.940162	5.910242
O	5.910242	5.910242	3.940162
W	3.940162	3.940162	3.940162
