40

Co	0.000000	0.000000	0.000000
O	2.193889	2.193889	0.000000
O	2.193889	0.000000	2.193889
O	0.000000	2.193889	2.193889
Pm	2.193889	2.193889	2.193889
Co	0.000000	0.000000	4.387774
O	2.193889	2.193889	4.387774
O	2.193889	0.000000	6.581663
O	0.000000	2.193889	6.581663
Pm	2.193889	2.193889	6.581663
Co	0.000000	4.387774	0.000000
O	2.193889	6.581663	0.000000
O	2.193889	4.387774	2.193889
O	0.000000	6.581663	2.193889
Pm	2.193889	6.581663	2.193889
Co	0.000000	4.387774	4.387774
O	2.193889	6.581663	4.387774
O	2.193889	4.387774	6.581663
O	0.000000	6.581663	6.581663
Pm	2.193889	6.581663	6.581663
Co	4.387774	0.000000	0.000000
O	6.581663	2.193889	0.000000
O	6.581663	0.000000	2.193889
O	4.387774	2.193889	2.193889
Pm	6.581663	2.193889	2.193889
Co	4.387774	0.000000	4.387774
O	6.581663	2.193889	4.387774
O	6.581663	0.000000	6.581663
O	4.387774	2.193889	6.581663
Pm	6.581663	2.193889	6.581663
Co	4.387774	4.387774	0.000000
O	6.581663	6.581663	0.000000
O	6.581663	4.387774	2.193889
O	4.387774	6.581663	2.193889
Pm	6.581663	6.581663	2.193889
Co	4.387774	4.387774	4.387774
O	6.581663	6.581663	4.387774
O	6.581663	4.387774	6.581663
O	4.387774	6.581663	6.581663
Pm	6.581663	6.581663	6.581663
