40

As	0.000000	0.000000	0.000000
O	0.000000	1.856134	1.856134
O	1.856134	0.000000	1.856134
O	1.856134	1.856134	0.000000
P	1.856134	1.856134	1.856134
As	0.000000	0.000000	3.712269
O	0.000000	1.856134	5.568403
O	1.856134	0.000000	5.568403
O	1.856134	1.856134	3.712269
P	1.856134	1.856134	5.568403
As	0.000000	3.712269	0.000000
O	0.000000	5.568403	1.856134
O	1.856134	3.712269	1.856134
O	1.856134	5.568403	0.000000
P	1.856134	5.568403	1.856134
As	0.000000	3.712269	3.712269
O	0.000000	5.568403	5.568403
O	1.856134	3.712269	5.568403
O	1.856134	5.568403	3.712269
P	1.856134	5.568403	5.568403
As	3.712269	0.000000	0.000000
O	3.712269	1.856134	1.856134
O	5.568403	0.000000	1.856134
O	5.568403	1.856134	0.000000
P	5.568403	1.856134	1.856134
As	3.712269	0.000000	3.712269
O	3.712269	1.856134	5.568403
O	5.568403	0.000000	5.568403
O	5.568403	1.856134	3.712269
P	5.568403	1.856134	5.568403
As	3.712269	3.712269	0.000000
O	3.712269	5.568403	1.856134
O	5.568403	3.712269	1.856134
O	5.568403	5.568403	0.000000
P	5.568403	5.568403	1.856134
As	3.712269	3.712269	3.712269
O	3.712269	5.568403	5.568403
O	5.568403	3.712269	5.568403
O	5.568403	5.568403	3.712269
P	5.568403	5.568403	5.568403
