40

In	0.000000	0.000000	0.000000
Np	2.159970	2.159970	2.159970
O	2.159970	0.000000	2.159970
O	0.000000	2.159970	2.159970
O	2.159970	2.159970	0.000000
In	0.000000	0.000000	4.319936
Np	2.159970	2.159970	6.479906
O	2.159970	0.000000	6.479906
O	0.000000	2.159970	6.479906
O	2.159970	2.159970	4.319936
In	0.000000	4.319936	0.000000
Np	2.159970	6.479906	2.159970
O	2.159970	4.319936	2.159970
O	0.000000	6.479906	2.159970
O	2.159970	6.479906	0.000000
In	0.000000	4.319936	4.319936
Np	2.159970	6.479906	6.479906
O	2.159970	4.319936	6.479906
O	0.000000	6.479906	6.479906
O	2.159970	6.479906	4.319936
In	4.319936	0.000000	0.000000
Np	6.479906	2.159970	2.159970
O	6.479906	0.000000	2.159970
O	4.319936	2.159970	2.159970
O	6.479906	2.159970	0.000000
In	4.319936	0.000000	4.319936
Np	6.479906	2.159970	6.479906
O	6.479906	0.000000	6.479906
O	4.319936	2.159970	6.479906
O	6.479906	2.159970	4.319936
In	4.319936	4.319936	0.000000
Np	6.479906	6.479906	2.159970
O	6.479906	4.319936	2.159970
O	4.319936	6.479906	2.159970
O	6.479906	6.479906	0.000000
In	4.319936	4.319936	4.319936
Np	6.479906	6.479906	6.479906
O	6.479906	4.319936	6.479906
O	4.319936	6.479906	6.479906
O	6.479906	6.479906	4.319936
