112

Hf	0.000000	0.000000	0.000000
Hf	2.332106	-2.332735	-2.332735
Ho	-1.166058	-1.166367	-3.499102
Ho	5.830270	-1.166367	-1.166367
Ho	3.498164	1.166367	-1.166367
Ho	1.166058	1.166367	-3.499102
O	1.144008	1.144921	-1.144921
O	3.476115	-1.187814	-1.187814
O	-1.188108	1.187814	-3.477656
O	1.188108	-1.187814	-3.477656
O	1.144008	3.520539	-3.520539
O	3.520214	3.520539	-1.144921
O	3.520214	1.144921	-3.520539
O	5.852320	1.187814	-1.187814
Hf	4.664218	4.665463	0.000000
Hf	6.996324	2.332728	-2.332735
Ho	3.498160	3.499096	-3.499102
Ho	10.494488	3.499096	-1.166367
Ho	8.162382	5.831831	-1.166367
Ho	5.830276	5.831831	-3.499102
O	5.808226	5.810384	-1.144921
O	8.140332	3.477649	-1.187814
O	3.476110	5.853277	-3.477656
O	5.852325	3.477649	-3.477656
O	5.808226	8.186002	-3.520539
O	8.184432	8.186002	-1.144921
O	8.184432	5.810384	-3.520539
O	10.516538	5.853277	-1.187814
Hf	-4.664218	0.000000	-4.665463
Hf	-2.332112	-2.332735	-6.998198
Ho	-5.830276	-1.166367	-8.164566
Ho	1.166052	-1.166367	-5.831831
Ho	-1.166054	1.166367	-5.831831
Ho	-3.498160	1.166367	-8.164566
O	-3.520209	1.144921	-5.810384
O	-1.188103	-1.187814	-5.853277
O	-5.852325	1.187814	-8.143119
O	-3.476110	-1.187814	-8.143119
O	-3.520209	3.520539	-8.186002
O	-1.144004	3.520539	-5.810384
O	-1.144004	1.144921	-8.186002
O	1.188102	1.187814	-5.853277
Hf	0.000000	4.665463	-4.665463
Hf	2.332106	2.332728	-6.998198
Ho	-1.166058	3.499096	-8.164566
Ho	5.830270	3.499096	-5.831831
Ho	3.498164	5.831831	-5.831831
Ho	1.166058	5.831831	-8.164566
O	1.144008	5.810384	-5.810384
O	3.476115	3.477649	-5.853277
O	-1.188108	5.853277	-8.143119
O	1.188108	3.477649	-8.143119
O	1.144008	8.186002	-8.186002
O	3.520214	8.186002	-5.810384
O	3.520214	5.810384	-8.186002
O	5.852320	5.853277	-5.853277
Hf	4.664218	-4.665463	0.000000
Hf	6.996324	-6.998198	-2.332735
Ho	3.498160	-5.831831	-3.499102
Ho	10.494488	-5.831831	-1.166367
Ho	8.162382	-3.499096	-1.166367
Ho	5.830276	-3.499096	-3.499102
O	5.808226	-3.520542	-1.144921
O	8.140332	-5.853277	-1.187814
O	3.476110	-3.477649	-3.477656
O	5.852325	-5.853277	-3.477656
O	5.808226	-1.144924	-3.520539
O	8.184432	-1.144924	-1.144921
O	8.184432	-3.520542	-3.520539
O	10.516538	-3.477649	-1.187814
Hf	9.328436	0.000000	0.000000
Hf	11.660542	-2.332735	-2.332735
Ho	8.162378	-1.166367	-3.499102
Ho	15.158706	-1.166367	-1.166367
Ho	12.826600	1.166367	-1.166367
Ho	10.494494	1.166367	-3.499102
O	10.472444	1.144921	-1.144921
O	12.804550	-1.187814	-1.187814
O	8.140328	1.187814	-3.477656
O	10.516543	-1.187814	-3.477656
O	10.472444	3.520539	-3.520539
O	12.848649	3.520539	-1.144921
O	12.848649	1.144921	-3.520539
O	15.180756	1.187814	-1.187814
Hf	0.000000	-4.665463	-4.665463
Hf	2.332106	-6.998198	-6.998198
Ho	-1.166058	-5.831831	-8.164566
Ho	5.830270	-5.831831	-5.831831
Ho	3.498164	-3.499096	-5.831831
Ho	1.166058	-3.499096	-8.164566
O	1.144008	-3.520542	-5.810384
O	3.476115	-5.853277	-5.853277
O	-1.188108	-3.477649	-8.143119
O	1.188108	-5.853277	-8.143119
O	1.144008	-1.144924	-8.186002
O	3.520214	-1.144924	-5.810384
O	3.520214	-3.520542	-8.186002
O	5.852320	-3.477649	-5.853277
Hf	4.664218	0.000000	-4.665463
Hf	6.996324	-2.332735	-6.998198
Ho	3.498160	-1.166367	-8.164566
Ho	10.494488	-1.166367	-5.831831
Ho	8.162382	1.166367	-5.831831
Ho	5.830276	1.166367	-8.164566
O	5.808226	1.144921	-5.810384
O	8.140332	-1.187814	-5.853277
O	3.476110	1.187814	-8.143119
O	5.852325	-1.187814	-8.143119
O	5.808226	3.520539	-8.186002
O	8.184432	3.520539	-5.810384
O	8.184432	1.144921	-8.186002
O	10.516538	1.187814	-5.853277
