40

Ge	1.890756	1.890756	1.890756
Ir	0.000000	0.000000	0.000000
O	1.890756	1.890756	0.000000
O	1.890756	0.000000	1.890756
O	0.000000	1.890756	1.890756
Ge	1.890756	1.890756	5.672268
Ir	0.000000	0.000000	3.781512
O	1.890756	1.890756	3.781512
O	1.890756	0.000000	5.672268
O	0.000000	1.890756	5.672268
Ge	1.890756	5.672268	1.890756
Ir	0.000000	3.781512	0.000000
O	1.890756	5.672268	0.000000
O	1.890756	3.781512	1.890756
O	0.000000	5.672268	1.890756
Ge	1.890756	5.672268	5.672268
Ir	0.000000	3.781512	3.781512
O	1.890756	5.672268	3.781512
O	1.890756	3.781512	5.672268
O	0.000000	5.672268	5.672268
Ge	5.672268	1.890756	1.890756
Ir	3.781512	0.000000	0.000000
O	5.672268	1.890756	0.000000
O	5.672268	0.000000	1.890756
O	3.781512	1.890756	1.890756
Ge	5.672268	1.890756	5.672268
Ir	3.781512	0.000000	3.781512
O	5.672268	1.890756	3.781512
O	5.672268	0.000000	5.672268
O	3.781512	1.890756	5.672268
Ge	5.672268	5.672268	1.890756
Ir	3.781512	3.781512	0.000000
O	5.672268	5.672268	0.000000
O	5.672268	3.781512	1.890756
O	3.781512	5.672268	1.890756
Ge	5.672268	5.672268	5.672268
Ir	3.781512	3.781512	3.781512
O	5.672268	5.672268	3.781512
O	5.672268	3.781512	5.672268
O	3.781512	5.672268	5.672268
