40

Cr	1.896883	1.896883	1.896883
Ga	0.000000	0.000000	0.000000
O	0.000000	1.896883	1.896883
O	1.896883	0.000000	1.896883
O	1.896883	1.896883	0.000000
Cr	1.896883	1.896883	5.690648
Ga	0.000000	0.000000	3.793765
O	0.000000	1.896883	5.690648
O	1.896883	0.000000	5.690648
O	1.896883	1.896883	3.793765
Cr	1.896883	5.690648	1.896883
Ga	0.000000	3.793765	0.000000
O	0.000000	5.690648	1.896883
O	1.896883	3.793765	1.896883
O	1.896883	5.690648	0.000000
Cr	1.896883	5.690648	5.690648
Ga	0.000000	3.793765	3.793765
O	0.000000	5.690648	5.690648
O	1.896883	3.793765	5.690648
O	1.896883	5.690648	3.793765
Cr	5.690648	1.896883	1.896883
Ga	3.793765	0.000000	0.000000
O	3.793765	1.896883	1.896883
O	5.690648	0.000000	1.896883
O	5.690648	1.896883	0.000000
Cr	5.690648	1.896883	5.690648
Ga	3.793765	0.000000	3.793765
O	3.793765	1.896883	5.690648
O	5.690648	0.000000	5.690648
O	5.690648	1.896883	3.793765
Cr	5.690648	5.690648	1.896883
Ga	3.793765	3.793765	0.000000
O	3.793765	5.690648	1.896883
O	5.690648	3.793765	1.896883
O	5.690648	5.690648	0.000000
Cr	5.690648	5.690648	5.690648
Ga	3.793765	3.793765	3.793765
O	3.793765	5.690648	5.690648
O	5.690648	3.793765	5.690648
O	5.690648	5.690648	3.793765
