40

Ba	0.000000	0.000000	0.000000
O	0.000000	1.972397	1.972397
O	1.972397	0.000000	1.972397
O	1.972397	1.972397	0.000000
P	1.972397	1.972397	1.972397
Ba	0.000000	0.000000	3.944795
O	0.000000	1.972397	5.917192
O	1.972397	0.000000	5.917192
O	1.972397	1.972397	3.944795
P	1.972397	1.972397	5.917192
Ba	0.000000	3.944795	0.000000
O	0.000000	5.917192	1.972397
O	1.972397	3.944795	1.972397
O	1.972397	5.917192	0.000000
P	1.972397	5.917192	1.972397
Ba	0.000000	3.944795	3.944795
O	0.000000	5.917192	5.917192
O	1.972397	3.944795	5.917192
O	1.972397	5.917192	3.944795
P	1.972397	5.917192	5.917192
Ba	3.944795	0.000000	0.000000
O	3.944795	1.972397	1.972397
O	5.917192	0.000000	1.972397
O	5.917192	1.972397	0.000000
P	5.917192	1.972397	1.972397
Ba	3.944795	0.000000	3.944795
O	3.944795	1.972397	5.917192
O	5.917192	0.000000	5.917192
O	5.917192	1.972397	3.944795
P	5.917192	1.972397	5.917192
Ba	3.944795	3.944795	0.000000
O	3.944795	5.917192	1.972397
O	5.917192	3.944795	1.972397
O	5.917192	5.917192	0.000000
P	5.917192	5.917192	1.972397
Ba	3.944795	3.944795	3.944795
O	3.944795	5.917192	5.917192
O	5.917192	3.944795	5.917192
O	5.917192	5.917192	3.944795
P	5.917192	5.917192	5.917192
