40

Al	1.874719	1.874719	1.874719
Cd	0.000000	0.000000	0.000000
O	0.000000	1.874719	1.874719
O	1.874719	0.000000	1.874719
O	1.874719	1.874719	0.000000
Al	1.874719	1.874719	5.624156
Cd	0.000000	0.000000	3.749438
O	0.000000	1.874719	5.624156
O	1.874719	0.000000	5.624156
O	1.874719	1.874719	3.749438
Al	1.874719	5.624156	1.874719
Cd	0.000000	3.749438	0.000000
O	0.000000	5.624156	1.874719
O	1.874719	3.749438	1.874719
O	1.874719	5.624156	0.000000
Al	1.874719	5.624156	5.624156
Cd	0.000000	3.749438	3.749438
O	0.000000	5.624156	5.624156
O	1.874719	3.749438	5.624156
O	1.874719	5.624156	3.749438
Al	5.624156	1.874719	1.874719
Cd	3.749438	0.000000	0.000000
O	3.749438	1.874719	1.874719
O	5.624156	0.000000	1.874719
O	5.624156	1.874719	0.000000
Al	5.624156	1.874719	5.624156
Cd	3.749438	0.000000	3.749438
O	3.749438	1.874719	5.624156
O	5.624156	0.000000	5.624156
O	5.624156	1.874719	3.749438
Al	5.624156	5.624156	1.874719
Cd	3.749438	3.749438	0.000000
O	3.749438	5.624156	1.874719
O	5.624156	3.749438	1.874719
O	5.624156	5.624156	0.000000
Al	5.624156	5.624156	5.624156
Cd	3.749438	3.749438	3.749438
O	3.749438	5.624156	5.624156
O	5.624156	3.749438	5.624156
O	5.624156	5.624156	3.749438
