40

Ca	0.000000	0.000000	0.000000
O	1.954010	1.954010	0.000000
O	0.000000	1.954010	1.954010
O	1.954010	0.000000	1.954010
Tc	1.954010	1.954010	1.954010
Ca	0.000000	0.000000	3.908029
O	1.954010	1.954010	3.908029
O	0.000000	1.954010	5.862039
O	1.954010	0.000000	5.862039
Tc	1.954010	1.954010	5.862039
Ca	0.000000	3.908029	0.000000
O	1.954010	5.862039	0.000000
O	0.000000	5.862039	1.954010
O	1.954010	3.908029	1.954010
Tc	1.954010	5.862039	1.954010
Ca	0.000000	3.908029	3.908029
O	1.954010	5.862039	3.908029
O	0.000000	5.862039	5.862039
O	1.954010	3.908029	5.862039
Tc	1.954010	5.862039	5.862039
Ca	3.908029	0.000000	0.000000
O	5.862039	1.954010	0.000000
O	3.908029	1.954010	1.954010
O	5.862039	0.000000	1.954010
Tc	5.862039	1.954010	1.954010
Ca	3.908029	0.000000	3.908029
O	5.862039	1.954010	3.908029
O	3.908029	1.954010	5.862039
O	5.862039	0.000000	5.862039
Tc	5.862039	1.954010	5.862039
Ca	3.908029	3.908029	0.000000
O	5.862039	5.862039	0.000000
O	3.908029	5.862039	1.954010
O	5.862039	3.908029	1.954010
Tc	5.862039	5.862039	1.954010
Ca	3.908029	3.908029	3.908029
O	5.862039	5.862039	3.908029
O	3.908029	5.862039	5.862039
O	5.862039	3.908029	5.862039
Tc	5.862039	5.862039	5.862039
