40

Ca	2.156261	2.156261	2.156261
O	0.000000	2.156261	2.156261
O	2.156261	0.000000	2.156261
O	2.156261	2.156261	0.000000
Tc	0.000000	0.000000	0.000000
Ca	2.156261	2.156261	6.468782
O	0.000000	2.156261	6.468782
O	2.156261	0.000000	6.468782
O	2.156261	2.156261	4.312522
Tc	0.000000	0.000000	4.312522
Ca	2.156261	6.468782	2.156261
O	0.000000	6.468782	2.156261
O	2.156261	4.312522	2.156261
O	2.156261	6.468782	0.000000
Tc	0.000000	4.312522	0.000000
Ca	2.156261	6.468782	6.468782
O	0.000000	6.468782	6.468782
O	2.156261	4.312522	6.468782
O	2.156261	6.468782	4.312522
Tc	0.000000	4.312522	4.312522
Ca	6.468782	2.156261	2.156261
O	4.312522	2.156261	2.156261
O	6.468782	0.000000	2.156261
O	6.468782	2.156261	0.000000
Tc	4.312522	0.000000	0.000000
Ca	6.468782	2.156261	6.468782
O	4.312522	2.156261	6.468782
O	6.468782	0.000000	6.468782
O	6.468782	2.156261	4.312522
Tc	4.312522	0.000000	4.312522
Ca	6.468782	6.468782	2.156261
O	4.312522	6.468782	2.156261
O	6.468782	4.312522	2.156261
O	6.468782	6.468782	0.000000
Tc	4.312522	4.312522	0.000000
Ca	6.468782	6.468782	6.468782
O	4.312522	6.468782	6.468782
O	6.468782	4.312522	6.468782
O	6.468782	6.468782	4.312522
Tc	4.312522	4.312522	4.312522
