40

Ba	0.000000	0.000000	0.000000
K	2.341991	2.341991	2.341991
O	0.000000	2.341991	2.341991
O	2.341991	0.000000	2.341991
O	2.341991	2.341991	0.000000
Ba	0.000000	0.000000	4.683983
K	2.341991	2.341991	7.025974
O	0.000000	2.341991	7.025974
O	2.341991	0.000000	7.025974
O	2.341991	2.341991	4.683983
Ba	0.000000	4.683983	0.000000
K	2.341991	7.025974	2.341991
O	0.000000	7.025974	2.341991
O	2.341991	4.683983	2.341991
O	2.341991	7.025974	0.000000
Ba	0.000000	4.683983	4.683983
K	2.341991	7.025974	7.025974
O	0.000000	7.025974	7.025974
O	2.341991	4.683983	7.025974
O	2.341991	7.025974	4.683983
Ba	4.683983	0.000000	0.000000
K	7.025974	2.341991	2.341991
O	4.683983	2.341991	2.341991
O	7.025974	0.000000	2.341991
O	7.025974	2.341991	0.000000
Ba	4.683983	0.000000	4.683983
K	7.025974	2.341991	7.025974
O	4.683983	2.341991	7.025974
O	7.025974	0.000000	7.025974
O	7.025974	2.341991	4.683983
Ba	4.683983	4.683983	0.000000
K	7.025974	7.025974	2.341991
O	4.683983	7.025974	2.341991
O	7.025974	4.683983	2.341991
O	7.025974	7.025974	0.000000
Ba	4.683983	4.683983	4.683983
K	7.025974	7.025974	7.025974
O	4.683983	7.025974	7.025974
O	7.025974	4.683983	7.025974
O	7.025974	7.025974	4.683983
