40

O	0.000000	2.161786	2.161786
O	2.161786	0.000000	2.161786
O	2.161786	2.161786	0.000000
Ti	0.000000	0.000000	0.000000
Y	2.161786	2.161786	2.161786
O	0.000000	2.161786	6.485359
O	2.161786	0.000000	6.485359
O	2.161786	2.161786	4.323572
Ti	0.000000	0.000000	4.323572
Y	2.161786	2.161786	6.485359
O	0.000000	6.485359	2.161786
O	2.161786	4.323572	2.161786
O	2.161786	6.485359	0.000000
Ti	0.000000	4.323572	0.000000
Y	2.161786	6.485359	2.161786
O	0.000000	6.485359	6.485359
O	2.161786	4.323572	6.485359
O	2.161786	6.485359	4.323572
Ti	0.000000	4.323572	4.323572
Y	2.161786	6.485359	6.485359
O	4.323572	2.161786	2.161786
O	6.485359	0.000000	2.161786
O	6.485359	2.161786	0.000000
Ti	4.323572	0.000000	0.000000
Y	6.485359	2.161786	2.161786
O	4.323572	2.161786	6.485359
O	6.485359	0.000000	6.485359
O	6.485359	2.161786	4.323572
Ti	4.323572	0.000000	4.323572
Y	6.485359	2.161786	6.485359
O	4.323572	6.485359	2.161786
O	6.485359	4.323572	2.161786
O	6.485359	6.485359	0.000000
Ti	4.323572	4.323572	0.000000
Y	6.485359	6.485359	2.161786
O	4.323572	6.485359	6.485359
O	6.485359	4.323572	6.485359
O	6.485359	6.485359	4.323572
Ti	4.323572	4.323572	4.323572
Y	6.485359	6.485359	6.485359
