40

O	1.939163	1.939163	0.000000
O	0.000000	1.939163	1.939163
O	1.939163	0.000000	1.939163
Ti	1.939163	1.939163	1.939163
Y	0.000000	0.000000	0.000000
O	1.939163	1.939163	3.878318
O	0.000000	1.939163	5.817480
O	1.939163	0.000000	5.817480
Ti	1.939163	1.939163	5.817480
Y	0.000000	0.000000	3.878318
O	1.939163	5.817480	0.000000
O	0.000000	5.817480	1.939163
O	1.939163	3.878318	1.939163
Ti	1.939163	5.817480	1.939163
Y	0.000000	3.878318	0.000000
O	1.939163	5.817480	3.878318
O	0.000000	5.817480	5.817480
O	1.939163	3.878318	5.817480
Ti	1.939163	5.817480	5.817480
Y	0.000000	3.878318	3.878318
O	5.817480	1.939163	0.000000
O	3.878318	1.939163	1.939163
O	5.817480	0.000000	1.939163
Ti	5.817480	1.939163	1.939163
Y	3.878318	0.000000	0.000000
O	5.817480	1.939163	3.878318
O	3.878318	1.939163	5.817480
O	5.817480	0.000000	5.817480
Ti	5.817480	1.939163	5.817480
Y	3.878318	0.000000	3.878318
O	5.817480	5.817480	0.000000
O	3.878318	5.817480	1.939163
O	5.817480	3.878318	1.939163
Ti	5.817480	5.817480	1.939163
Y	3.878318	3.878318	0.000000
O	5.817480	5.817480	3.878318
O	3.878318	5.817480	5.817480
O	5.817480	3.878318	5.817480
Ti	5.817480	5.817480	5.817480
Y	3.878318	3.878318	3.878318
