112

Co	0.000000	0.000000	0.000000
Co	2.142641	-2.143169	-2.143169
O	3.260978	-1.023940	-1.023940
O	-1.024305	1.023940	-3.262399
O	1.024305	-1.023940	-3.262399
O	1.118337	1.119229	-1.119229
O	5.309587	1.023940	-1.023940
O	1.118337	3.167109	-3.167109
O	3.166946	3.167109	-1.119229
O	3.166946	1.119229	-3.167109
Tc	-1.071321	-1.071585	-3.214754
Tc	3.213962	1.071585	-1.071585
Tc	5.356603	-1.071585	-1.071585
Tc	1.071321	1.071585	-3.214754
Co	4.285283	4.286339	0.000000
Co	6.427924	2.143169	-2.143169
O	7.546260	3.262399	-1.023940
O	3.260978	5.310279	-3.262399
O	5.309587	3.262399	-3.262399
O	5.403619	5.405568	-1.119229
O	9.594870	5.310279	-1.023940
O	5.403619	7.453448	-3.167109
O	7.452229	7.453448	-1.119229
O	7.452229	5.405568	-3.167109
Tc	3.213962	3.214754	-3.214754
Tc	7.499245	5.357923	-1.071585
Tc	9.641886	3.214754	-1.071585
Tc	5.356603	5.357923	-3.214754
Co	-4.285283	0.000000	-4.286339
Co	-2.142641	-2.143169	-6.429508
O	-1.024305	-1.023940	-5.310279
O	-5.309587	1.023940	-7.548737
O	-3.260978	-1.023940	-7.548737
O	-3.166946	1.119229	-5.405568
O	1.024305	1.023940	-5.310279
O	-3.166946	3.167109	-7.453448
O	-1.118337	3.167109	-5.405568
O	-1.118337	1.119229	-7.453448
Tc	-5.356603	-1.071585	-7.501092
Tc	-1.071321	1.071585	-5.357923
Tc	1.071321	-1.071585	-5.357923
Tc	-3.213962	1.071585	-7.501092
Co	0.000000	4.286339	-4.286339
Co	2.142641	2.143169	-6.429508
O	3.260978	3.262399	-5.310279
O	-1.024305	5.310279	-7.548737
O	1.024305	3.262399	-7.548737
O	1.118337	5.405568	-5.405568
O	5.309587	5.310279	-5.310279
O	1.118337	7.453448	-7.453448
O	3.166946	7.453448	-5.405568
O	3.166946	5.405568	-7.453448
Tc	-1.071321	3.214754	-7.501092
Tc	3.213962	5.357923	-5.357923
Tc	5.356603	3.214754	-5.357923
Tc	1.071321	5.357923	-7.501092
Co	4.285283	-4.286339	0.000000
Co	6.427924	-6.429508	-2.143169
O	7.546260	-5.310279	-1.023940
O	3.260978	-3.262399	-3.262399
O	5.309587	-5.310279	-3.262399
O	5.403619	-3.167109	-1.119229
O	9.594870	-3.262399	-1.023940
O	5.403619	-1.119229	-3.167109
O	7.452229	-1.119229	-1.119229
O	7.452229	-3.167109	-3.167109
Tc	3.213962	-5.357923	-3.214754
Tc	7.499245	-3.214754	-1.071585
Tc	9.641886	-5.357923	-1.071585
Tc	5.356603	-3.214754	-3.214754
Co	8.570565	0.000000	0.000000
Co	10.713207	-2.143169	-2.143169
O	11.831543	-1.023940	-1.023940
O	7.546260	1.023940	-3.262399
O	9.594870	-1.023940	-3.262399
O	9.688902	1.119229	-1.119229
O	13.880153	1.023940	-1.023940
O	9.688902	3.167109	-3.167109
O	11.737511	3.167109	-1.119229
O	11.737511	1.119229	-3.167109
Tc	7.499245	-1.071585	-3.214754
Tc	11.784527	1.071585	-1.071585
Tc	13.927168	-1.071585	-1.071585
Tc	9.641886	1.071585	-3.214754
Co	0.000000	-4.286339	-4.286339
Co	2.142641	-6.429508	-6.429508
O	3.260978	-5.310279	-5.310279
O	-1.024305	-3.262399	-7.548737
O	1.024305	-5.310279	-7.548737
O	1.118337	-3.167109	-5.405568
O	5.309587	-3.262399	-5.310279
O	1.118337	-1.119229	-7.453448
O	3.166946	-1.119229	-5.405568
O	3.166946	-3.167109	-7.453448
Tc	-1.071321	-5.357923	-7.501092
Tc	3.213962	-3.214754	-5.357923
Tc	5.356603	-5.357923	-5.357923
Tc	1.071321	-3.214754	-7.501092
Co	4.285283	0.000000	-4.286339
Co	6.427924	-2.143169	-6.429508
O	7.546260	-1.023940	-5.310279
O	3.260978	1.023940	-7.548737
O	5.309587	-1.023940	-7.548737
O	5.403619	1.119229	-5.405568
O	9.594870	1.023940	-5.310279
O	5.403619	3.167109	-7.453448
O	7.452229	3.167109	-5.405568
O	7.452229	1.119229	-7.453448
Tc	3.213962	-1.071585	-7.501092
Tc	7.499245	1.071585	-5.357923
Tc	9.641886	-1.071585	-5.357923
Tc	5.356603	1.071585	-7.501092
