112

Na	0.000000	0.000000	0.000000
Na	2.201164	-2.200853	-2.200853
O	3.468077	-0.933174	-0.933174
O	-0.934251	0.933174	-3.468531
O	0.934251	-0.933174	-3.468531
O	1.266913	1.267678	-1.267678
O	5.336579	0.933174	-0.933174
O	1.266913	3.134027	-3.134027
O	3.135415	3.134027	-1.267678
O	3.135415	1.267678	-3.134027
Zn	-1.100582	-1.100426	-3.301279
Zn	3.301746	1.100426	-1.100426
Zn	5.502910	-1.100426	-1.100426
Zn	1.100582	1.100426	-3.301279
Na	4.402328	4.401706	0.000000
Na	6.603492	2.200853	-2.200853
O	7.870405	3.468531	-0.933174
O	3.468077	5.334880	-3.468531
O	5.336579	3.468531	-3.468531
O	5.669241	5.669384	-1.267678
O	9.738906	5.334880	-0.933174
O	5.669241	7.535733	-3.134027
O	7.537743	7.535733	-1.267678
O	7.537743	5.669384	-3.134027
Zn	3.301746	3.301279	-3.301279
Zn	7.704074	5.502132	-1.100426
Zn	9.905237	3.301279	-1.100426
Zn	5.502910	5.502132	-3.301279
Na	-4.402328	0.000000	-4.401706
Na	-2.201164	-2.200853	-6.602559
O	-0.934251	-0.933174	-5.334880
O	-5.336579	0.933174	-7.870237
O	-3.468077	-0.933174	-7.870237
O	-3.135415	1.267678	-5.669384
O	0.934251	0.933174	-5.334880
O	-3.135415	3.134027	-7.535733
O	-1.266913	3.134027	-5.669384
O	-1.266913	1.267678	-7.535733
Zn	-5.502910	-1.100426	-7.702985
Zn	-1.100582	1.100426	-5.502132
Zn	1.100582	-1.100426	-5.502132
Zn	-3.301746	1.100426	-7.702985
Na	0.000000	4.401706	-4.401706
Na	2.201164	2.200853	-6.602559
O	3.468077	3.468531	-5.334880
O	-0.934251	5.334880	-7.870237
O	0.934251	3.468531	-7.870237
O	1.266913	5.669384	-5.669384
O	5.336579	5.334880	-5.334880
O	1.266913	7.535733	-7.535733
O	3.135415	7.535733	-5.669384
O	3.135415	5.669384	-7.535733
Zn	-1.100582	3.301279	-7.702985
Zn	3.301746	5.502132	-5.502132
Zn	5.502910	3.301279	-5.502132
Zn	1.100582	5.502132	-7.702985
Na	4.402328	-4.401706	0.000000
Na	6.603492	-6.602559	-2.200853
O	7.870405	-5.334880	-0.933174
O	3.468077	-3.468531	-3.468531
O	5.336579	-5.334880	-3.468531
O	5.669241	-3.134027	-1.267678
O	9.738906	-3.468531	-0.933174
O	5.669241	-1.267678	-3.134027
O	7.537743	-1.267678	-1.267678
O	7.537743	-3.134027	-3.134027
Zn	3.301746	-5.502132	-3.301279
Zn	7.704074	-3.301279	-1.100426
Zn	9.905237	-5.502132	-1.100426
Zn	5.502910	-3.301279	-3.301279
Na	8.804656	0.000000	0.000000
Na	11.005819	-2.200853	-2.200853
O	12.272732	-0.933174	-0.933174
O	7.870405	0.933174	-3.468531
O	9.738907	-0.933174	-3.468531
O	10.071568	1.267678	-1.267678
O	14.141234	0.933174	-0.933174
O	10.071568	3.134027	-3.134027
O	11.940070	3.134027	-1.267678
O	11.940070	1.267678	-3.134027
Zn	7.704074	-1.100426	-3.301279
Zn	12.106401	1.100426	-1.100426
Zn	14.307565	-1.100426	-1.100426
Zn	9.905237	1.100426	-3.301279
Na	0.000000	-4.401706	-4.401706
Na	2.201164	-6.602559	-6.602559
O	3.468077	-5.334880	-5.334880
O	-0.934251	-3.468531	-7.870237
O	0.934251	-5.334880	-7.870237
O	1.266913	-3.134027	-5.669384
O	5.336579	-3.468531	-5.334880
O	1.266913	-1.267678	-7.535733
O	3.135415	-1.267678	-5.669384
O	3.135415	-3.134027	-7.535733
Zn	-1.100582	-5.502132	-7.702985
Zn	3.301746	-3.301279	-5.502132
Zn	5.502910	-5.502132	-5.502132
Zn	1.100582	-3.301279	-7.702985
Na	4.402328	0.000000	-4.401706
Na	6.603492	-2.200853	-6.602559
O	7.870405	-0.933174	-5.334880
O	3.468077	0.933174	-7.870237
O	5.336579	-0.933174	-7.870237
O	5.669241	1.267678	-5.669384
O	9.738906	0.933174	-5.334880
O	5.669241	3.134027	-7.535733
O	7.537743	3.134027	-5.669384
O	7.537743	1.267678	-7.535733
Zn	3.301746	-1.100426	-7.702985
Zn	7.704074	1.100426	-5.502132
Zn	9.905237	-1.100426	-5.502132
Zn	5.502910	1.100426	-7.702985
