40

O	2.094290	2.094290	0.000000
O	0.000000	2.094290	2.094290
O	2.094290	0.000000	2.094290
Pb	2.094290	2.094290	2.094290
Ta	0.000000	0.000000	0.000000
O	2.094290	2.094290	4.188580
O	0.000000	2.094290	6.282870
O	2.094290	0.000000	6.282870
Pb	2.094290	2.094290	6.282870
Ta	0.000000	0.000000	4.188580
O	2.094290	6.282870	0.000000
O	0.000000	6.282870	2.094290
O	2.094290	4.188580	2.094290
Pb	2.094290	6.282870	2.094290
Ta	0.000000	4.188580	0.000000
O	2.094290	6.282870	4.188580
O	0.000000	6.282870	6.282870
O	2.094290	4.188580	6.282870
Pb	2.094290	6.282870	6.282870
Ta	0.000000	4.188580	4.188580
O	6.282870	2.094290	0.000000
O	4.188580	2.094290	2.094290
O	6.282870	0.000000	2.094290
Pb	6.282870	2.094290	2.094290
Ta	4.188580	0.000000	0.000000
O	6.282870	2.094290	4.188580
O	4.188580	2.094290	6.282870
O	6.282870	0.000000	6.282870
Pb	6.282870	2.094290	6.282870
Ta	4.188580	0.000000	4.188580
O	6.282870	6.282870	0.000000
O	4.188580	6.282870	2.094290
O	6.282870	4.188580	2.094290
Pb	6.282870	6.282870	2.094290
Ta	4.188580	4.188580	0.000000
O	6.282870	6.282870	4.188580
O	4.188580	6.282870	6.282870
O	6.282870	4.188580	6.282870
Pb	6.282870	6.282870	6.282870
Ta	4.188580	4.188580	4.188580
