112

B	0.000000	0.000000	0.000000
B	2.108072	-2.108146	-2.108146
Cd	-1.054031	-1.054073	-3.162229
Cd	3.162104	1.054073	-1.054073
Cd	1.054031	1.054073	-3.162229
Cd	5.270176	-1.054073	-1.054073
O	0.869832	0.869997	-0.869996
O	-1.238241	1.238150	-2.978143
O	2.977904	-1.238150	-1.238150
O	1.238241	-1.238150	-2.978143
O	0.869832	3.346306	-3.346306
O	3.346303	3.346306	-0.869996
O	3.346303	0.869996	-3.346306
O	5.454375	1.238150	-1.238150
B	4.216141	4.216301	0.000000
B	6.324213	2.108155	-2.108146
Cd	3.162110	3.162228	-3.162229
Cd	7.378244	5.270374	-1.054073
Cd	5.270172	5.270374	-3.162229
Cd	9.486317	3.162228	-1.054073
O	5.085973	5.086298	-0.869996
O	2.977900	5.454451	-2.978143
O	7.194045	2.978151	-1.238150
O	5.454381	2.978151	-2.978143
O	5.085973	7.562607	-3.346306
O	7.562444	7.562607	-0.869996
O	7.562444	5.086298	-3.346306
O	9.670516	5.454451	-1.238150
B	-4.216141	0.000000	-4.216301
B	-2.108068	-2.108146	-6.324447
Cd	-5.270172	-1.054073	-7.378531
Cd	-1.054037	1.054073	-5.270374
Cd	-3.162110	1.054073	-7.378531
Cd	1.054035	-1.054073	-5.270374
O	-3.346309	0.869997	-5.086298
O	-5.454381	1.238150	-7.194444
O	-1.238237	-1.238150	-5.454451
O	-2.977900	-1.238150	-7.194444
O	-3.346309	3.346306	-7.562607
O	-0.869838	3.346306	-5.086298
O	-0.869838	0.869996	-7.562607
O	1.238235	1.238150	-5.454451
B	0.000000	4.216301	-4.216301
B	2.108072	2.108155	-6.324447
Cd	-1.054031	3.162228	-7.378531
Cd	3.162104	5.270374	-5.270374
Cd	1.054031	5.270374	-7.378531
Cd	5.270176	3.162228	-5.270374
O	0.869832	5.086298	-5.086298
O	-1.238241	5.454451	-7.194444
O	2.977904	2.978151	-5.454451
O	1.238241	2.978151	-7.194444
O	0.869832	7.562607	-7.562607
O	3.346303	7.562607	-5.086298
O	3.346303	5.086298	-7.562607
O	5.454375	5.454451	-5.454451
B	4.216141	-4.216301	0.000000
B	6.324213	-6.324447	-2.108146
Cd	3.162110	-5.270374	-3.162229
Cd	7.378244	-3.162228	-1.054073
Cd	5.270172	-3.162228	-3.162229
Cd	9.486317	-5.270374	-1.054073
O	5.085973	-3.346305	-0.869996
O	2.977900	-2.978151	-2.978143
O	7.194045	-5.454451	-1.238150
O	5.454381	-5.454451	-2.978143
O	5.085973	-0.869995	-3.346306
O	7.562444	-0.869995	-0.869996
O	7.562444	-3.346305	-3.346306
O	9.670516	-2.978151	-1.238150
B	8.432282	0.000000	0.000000
B	10.540354	-2.108146	-2.108146
Cd	7.378251	-1.054073	-3.162229
Cd	11.594385	1.054073	-1.054073
Cd	9.486313	1.054073	-3.162229
Cd	13.702458	-1.054073	-1.054073
O	9.302114	0.869997	-0.869996
O	7.194041	1.238150	-2.978143
O	11.410186	-1.238150	-1.238150
O	9.670522	-1.238150	-2.978143
O	9.302114	3.346306	-3.346306
O	11.778585	3.346306	-0.869996
O	11.778585	0.869996	-3.346306
O	13.886657	1.238150	-1.238150
B	0.000000	-4.216301	-4.216301
B	2.108072	-6.324447	-6.324447
Cd	-1.054031	-5.270374	-7.378531
Cd	3.162104	-3.162228	-5.270374
Cd	1.054031	-3.162228	-7.378531
Cd	5.270176	-5.270374	-5.270374
O	0.869832	-3.346305	-5.086298
O	-1.238241	-2.978151	-7.194444
O	2.977904	-5.454451	-5.454451
O	1.238241	-5.454451	-7.194444
O	0.869832	-0.869995	-7.562607
O	3.346303	-0.869995	-5.086298
O	3.346303	-3.346305	-7.562607
O	5.454375	-2.978151	-5.454451
B	4.216141	0.000000	-4.216301
B	6.324213	-2.108146	-6.324447
Cd	3.162110	-1.054073	-7.378531
Cd	7.378244	1.054073	-5.270374
Cd	5.270172	1.054073	-7.378531
Cd	9.486317	-1.054073	-5.270374
O	5.085973	0.869997	-5.086298
O	2.977900	1.238150	-7.194444
O	7.194045	-1.238150	-5.454451
O	5.454381	-1.238150	-7.194444
O	5.085973	3.346306	-7.562607
O	7.562444	3.346306	-5.086298
O	7.562444	0.869996	-7.562607
O	9.670516	1.238150	-5.454451
