112

B	0.000000	0.000000	0.000000
B	2.123188	-2.123304	-2.123304
Cd	-1.061594	-1.061652	-3.184956
Cd	3.184782	1.061652	-1.061652
Cd	5.307970	-1.061652	-1.061652
Cd	1.061594	1.061652	-3.184956
O	2.996160	-1.250065	-1.250065
O	-1.250216	1.250065	-2.996544
O	1.250216	-1.250065	-2.996544
O	0.872972	0.873239	-0.873239
O	5.496592	1.250065	-1.250065
O	0.872972	3.373369	-3.373369
O	3.373404	3.373369	-0.873239
O	3.373404	0.873239	-3.373369
B	4.246376	4.246609	0.000000
B	6.369564	2.123304	-2.123304
Cd	3.184782	3.184956	-3.184956
Cd	7.431158	5.308261	-1.061652
Cd	9.554346	3.184956	-1.061652
Cd	5.307970	5.308261	-3.184956
O	7.242536	2.996544	-1.250065
O	2.996160	5.496673	-2.996544
O	5.496592	2.996544	-2.996544
O	5.119348	5.119848	-0.873239
O	9.742968	5.496673	-1.250065
O	5.119348	7.619978	-3.373369
O	7.619780	7.619978	-0.873239
O	7.619780	5.119848	-3.373369
B	-4.246376	0.000000	-4.246609
B	-2.123188	-2.123304	-6.369913
Cd	-5.307970	-1.061652	-7.431565
Cd	-1.061594	1.061652	-5.308261
Cd	1.061594	-1.061652	-5.308261
Cd	-3.184782	1.061652	-7.431565
O	-1.250216	-1.250065	-5.496673
O	-5.496592	1.250065	-7.243152
O	-2.996160	-1.250065	-7.243152
O	-3.373404	0.873239	-5.119848
O	1.250216	1.250065	-5.496673
O	-3.373404	3.373369	-7.619978
O	-0.872972	3.373369	-5.119848
O	-0.872972	0.873239	-7.619978
B	0.000000	4.246609	-4.246609
B	2.123188	2.123304	-6.369913
Cd	-1.061594	3.184956	-7.431565
Cd	3.184782	5.308261	-5.308261
Cd	5.307970	3.184956	-5.308261
Cd	1.061594	5.308261	-7.431565
O	2.996160	2.996544	-5.496673
O	-1.250216	5.496673	-7.243152
O	1.250216	2.996544	-7.243152
O	0.872972	5.119848	-5.119848
O	5.496592	5.496673	-5.496673
O	0.872972	7.619978	-7.619978
O	3.373404	7.619978	-5.119848
O	3.373404	5.119848	-7.619978
B	4.246376	-4.246609	0.000000
B	6.369564	-6.369913	-2.123304
Cd	3.184782	-5.308261	-3.184956
Cd	7.431158	-3.184956	-1.061652
Cd	9.554346	-5.308261	-1.061652
Cd	5.307970	-3.184956	-3.184956
O	7.242536	-5.496673	-1.250065
O	2.996160	-2.996544	-2.996544
O	5.496592	-5.496673	-2.996544
O	5.119348	-3.373369	-0.873239
O	9.742968	-2.996544	-1.250065
O	5.119348	-0.873239	-3.373369
O	7.619780	-0.873239	-0.873239
O	7.619780	-3.373369	-3.373369
B	8.492752	0.000000	0.000000
B	10.615940	-2.123304	-2.123304
Cd	7.431158	-1.061652	-3.184956
Cd	11.677534	1.061652	-1.061652
Cd	13.800722	-1.061652	-1.061652
Cd	9.554346	1.061652	-3.184956
O	11.488912	-1.250065	-1.250065
O	7.242536	1.250065	-2.996544
O	9.742968	-1.250065	-2.996544
O	9.365724	0.873239	-0.873239
O	13.989344	1.250065	-1.250065
O	9.365724	3.373369	-3.373369
O	11.866156	3.373369	-0.873239
O	11.866156	0.873239	-3.373369
B	0.000000	-4.246609	-4.246609
B	2.123188	-6.369913	-6.369913
Cd	-1.061594	-5.308261	-7.431565
Cd	3.184782	-3.184956	-5.308261
Cd	5.307970	-5.308261	-5.308261
Cd	1.061594	-3.184956	-7.431565
O	2.996160	-5.496673	-5.496673
O	-1.250216	-2.996544	-7.243152
O	1.250216	-5.496673	-7.243152
O	0.872972	-3.373369	-5.119848
O	5.496592	-2.996544	-5.496673
O	0.872972	-0.873239	-7.619978
O	3.373404	-0.873239	-5.119848
O	3.373404	-3.373369	-7.619978
B	4.246376	0.000000	-4.246609
B	6.369564	-2.123304	-6.369913
Cd	3.184782	-1.061652	-7.431565
Cd	7.431158	1.061652	-5.308261
Cd	9.554346	-1.061652	-5.308261
Cd	5.307970	1.061652	-7.431565
O	7.242536	-1.250065	-5.496673
O	2.996160	1.250065	-7.243152
O	5.496592	-1.250065	-7.243152
O	5.119348	0.873239	-5.119848
O	9.742968	1.250065	-5.496673
O	5.119348	3.373369	-7.619978
O	7.619780	3.373369	-5.119848
O	7.619780	0.873239	-7.619978
