40

B	1.727140	1.727140	1.727140
Dy_3	0.000000	0.000000	0.000000
O	1.727140	0.000000	1.727140
O	0.000000	1.727140	1.727140
O	1.727140	1.727140	0.000000
B	1.727140	1.727140	5.181425
Dy_3	0.000000	0.000000	3.454285
O	1.727140	0.000000	5.181425
O	0.000000	1.727140	5.181425
O	1.727140	1.727140	3.454285
B	1.727140	5.181425	1.727140
Dy_3	0.000000	3.454285	0.000000
O	1.727140	3.454285	1.727140
O	0.000000	5.181425	1.727140
O	1.727140	5.181425	0.000000
B	1.727140	5.181425	5.181425
Dy_3	0.000000	3.454285	3.454285
O	1.727140	3.454285	5.181425
O	0.000000	5.181425	5.181425
O	1.727140	5.181425	3.454285
B	5.181425	1.727140	1.727140
Dy_3	3.454285	0.000000	0.000000
O	5.181425	0.000000	1.727140
O	3.454285	1.727140	1.727140
O	5.181425	1.727140	0.000000
B	5.181425	1.727140	5.181425
Dy_3	3.454285	0.000000	3.454285
O	5.181425	0.000000	5.181425
O	3.454285	1.727140	5.181425
O	5.181425	1.727140	3.454285
B	5.181425	5.181425	1.727140
Dy_3	3.454285	3.454285	0.000000
O	5.181425	3.454285	1.727140
O	3.454285	5.181425	1.727140
O	5.181425	5.181425	0.000000
B	5.181425	5.181425	5.181425
Dy_3	3.454285	3.454285	3.454285
O	5.181425	3.454285	5.181425
O	3.454285	5.181425	5.181425
O	5.181425	5.181425	3.454285
