40

Hg	2.120530	2.120530	2.120530
K	0.000000	0.000000	0.000000
O	2.120530	0.000000	2.120530
O	0.000000	2.120530	2.120530
O	2.120530	2.120530	0.000000
Hg	2.120530	2.120530	6.361591
K	0.000000	0.000000	4.241061
O	2.120530	0.000000	6.361591
O	0.000000	2.120530	6.361591
O	2.120530	2.120530	4.241061
Hg	2.120530	6.361591	2.120530
K	0.000000	4.241061	0.000000
O	2.120530	4.241061	2.120530
O	0.000000	6.361591	2.120530
O	2.120530	6.361591	0.000000
Hg	2.120530	6.361591	6.361591
K	0.000000	4.241061	4.241061
O	2.120530	4.241061	6.361591
O	0.000000	6.361591	6.361591
O	2.120530	6.361591	4.241061
Hg	6.361591	2.120530	2.120530
K	4.241061	0.000000	0.000000
O	6.361591	0.000000	2.120530
O	4.241061	2.120530	2.120530
O	6.361591	2.120530	0.000000
Hg	6.361591	2.120530	6.361591
K	4.241061	0.000000	4.241061
O	6.361591	0.000000	6.361591
O	4.241061	2.120530	6.361591
O	6.361591	2.120530	4.241061
Hg	6.361591	6.361591	2.120530
K	4.241061	4.241061	0.000000
O	6.361591	4.241061	2.120530
O	4.241061	6.361591	2.120530
O	6.361591	6.361591	0.000000
Hg	6.361591	6.361591	6.361591
K	4.241061	4.241061	4.241061
O	6.361591	4.241061	6.361591
O	4.241061	6.361591	6.361591
O	6.361591	6.361591	4.241061
