40

Nb	0.000000	0.000000	0.000000
O	0.000000	1.967170	1.967170
O	1.967170	0.000000	1.967170
O	1.967170	1.967170	0.000000
Pd	1.967170	1.967170	1.967170
Nb	0.000000	0.000000	3.934339
O	0.000000	1.967170	5.901509
O	1.967170	0.000000	5.901509
O	1.967170	1.967170	3.934339
Pd	1.967170	1.967170	5.901509
Nb	0.000000	3.934339	0.000000
O	0.000000	5.901509	1.967170
O	1.967170	3.934339	1.967170
O	1.967170	5.901509	0.000000
Pd	1.967170	5.901509	1.967170
Nb	0.000000	3.934339	3.934339
O	0.000000	5.901509	5.901509
O	1.967170	3.934339	5.901509
O	1.967170	5.901509	3.934339
Pd	1.967170	5.901509	5.901509
Nb	3.934339	0.000000	0.000000
O	3.934339	1.967170	1.967170
O	5.901509	0.000000	1.967170
O	5.901509	1.967170	0.000000
Pd	5.901509	1.967170	1.967170
Nb	3.934339	0.000000	3.934339
O	3.934339	1.967170	5.901509
O	5.901509	0.000000	5.901509
O	5.901509	1.967170	3.934339
Pd	5.901509	1.967170	5.901509
Nb	3.934339	3.934339	0.000000
O	3.934339	5.901509	1.967170
O	5.901509	3.934339	1.967170
O	5.901509	5.901509	0.000000
Pd	5.901509	5.901509	1.967170
Nb	3.934339	3.934339	3.934339
O	3.934339	5.901509	5.901509
O	5.901509	3.934339	5.901509
O	5.901509	5.901509	3.934339
Pd	5.901509	5.901509	5.901509
