40

Nb	1.996488	1.996488	1.996488
O	0.000000	1.996488	1.996488
O	1.996488	0.000000	1.996488
O	1.996488	1.996488	0.000000
Pd	0.000000	0.000000	0.000000
Nb	1.996488	1.996488	5.989463
O	0.000000	1.996488	5.989463
O	1.996488	0.000000	5.989463
O	1.996488	1.996488	3.992975
Pd	0.000000	0.000000	3.992975
Nb	1.996488	5.989463	1.996488
O	0.000000	5.989463	1.996488
O	1.996488	3.992975	1.996488
O	1.996488	5.989463	0.000000
Pd	0.000000	3.992975	0.000000
Nb	1.996488	5.989463	5.989463
O	0.000000	5.989463	5.989463
O	1.996488	3.992975	5.989463
O	1.996488	5.989463	3.992975
Pd	0.000000	3.992975	3.992975
Nb	5.989463	1.996488	1.996488
O	3.992975	1.996488	1.996488
O	5.989463	0.000000	1.996488
O	5.989463	1.996488	0.000000
Pd	3.992975	0.000000	0.000000
Nb	5.989463	1.996488	5.989463
O	3.992975	1.996488	5.989463
O	5.989463	0.000000	5.989463
O	5.989463	1.996488	3.992975
Pd	3.992975	0.000000	3.992975
Nb	5.989463	5.989463	1.996488
O	3.992975	5.989463	1.996488
O	5.989463	3.992975	1.996488
O	5.989463	5.989463	0.000000
Pd	3.992975	3.992975	0.000000
Nb	5.989463	5.989463	5.989463
O	3.992975	5.989463	5.989463
O	5.989463	3.992975	5.989463
O	5.989463	5.989463	3.992975
Pd	3.992975	3.992975	3.992975
