112

O	3.438017	-0.973682	-0.973682
O	-0.973721	0.973682	-3.440310
O	0.973721	-0.973682	-3.440310
O	1.232148	1.233314	-1.233314
O	5.385458	0.973682	-0.973682
O	1.232148	3.180677	-3.180677
O	3.179589	3.180677	-1.233314
O	3.179589	1.233314	-3.180677
Pt	0.000000	0.000000	0.000000
Pt	2.205869	-2.206996	-2.206996
W	-1.102934	-1.103498	-3.310493
W	3.308803	1.103498	-1.103498
W	5.514672	-1.103498	-1.103498
W	1.102934	1.103498	-3.310493
O	7.849755	3.440310	-0.973682
O	3.438017	5.387673	-3.440310
O	5.385458	3.440310	-3.440310
O	5.643886	5.647305	-1.233314
O	9.797196	5.387673	-0.973682
O	5.643886	7.594669	-3.180677
O	7.591327	7.594669	-1.233314
O	7.591327	5.647305	-3.180677
Pt	4.411738	4.413991	0.000000
Pt	6.617607	2.206996	-2.206996
W	3.308803	3.310493	-3.310493
W	7.720541	5.517489	-1.103498
W	9.926410	3.310493	-1.103498
W	5.514672	5.517489	-3.310493
O	-0.973721	-0.973682	-5.387673
O	-5.385458	0.973682	-7.854301
O	-3.438017	-0.973682	-7.854301
O	-3.179589	1.233314	-5.647305
O	0.973721	0.973682	-5.387673
O	-3.179589	3.180677	-7.594669
O	-1.232148	3.180677	-5.647305
O	-1.232148	1.233314	-7.594669
Pt	-4.411738	0.000000	-4.413991
Pt	-2.205869	-2.206996	-6.620987
W	-5.514672	-1.103498	-7.724485
W	-1.102934	1.103498	-5.517489
W	1.102934	-1.103498	-5.517489
W	-3.308803	1.103498	-7.724485
O	3.438017	3.440310	-5.387673
O	-0.973721	5.387673	-7.854301
O	0.973721	3.440310	-7.854301
O	1.232148	5.647305	-5.647305
O	5.385458	5.387673	-5.387673
O	1.232148	7.594669	-7.594669
O	3.179589	7.594669	-5.647305
O	3.179589	5.647305	-7.594669
Pt	0.000000	4.413991	-4.413991
Pt	2.205869	2.206996	-6.620987
W	-1.102934	3.310493	-7.724485
W	3.308803	5.517489	-5.517489
W	5.514672	3.310493	-5.517489
W	1.102934	5.517489	-7.724485
O	7.849755	-5.387673	-0.973682
O	3.438017	-3.440310	-3.440310
O	5.385458	-5.387673	-3.440310
O	5.643886	-3.180677	-1.233314
O	9.797196	-3.440310	-0.973682
O	5.643886	-1.233314	-3.180677
O	7.591327	-1.233314	-1.233314
O	7.591327	-3.180677	-3.180677
Pt	4.411738	-4.413991	0.000000
Pt	6.617607	-6.620987	-2.206996
W	3.308803	-5.517489	-3.310493
W	7.720541	-3.310493	-1.103498
W	9.926410	-5.517489	-1.103498
W	5.514672	-3.310493	-3.310493
O	12.261492	-0.973682	-0.973682
O	7.849755	0.973682	-3.440310
O	9.797196	-0.973682	-3.440310
O	10.055624	1.233314	-1.233314
O	14.208934	0.973682	-0.973682
O	10.055624	3.180677	-3.180677
O	12.003065	3.180677	-1.233314
O	12.003065	1.233314	-3.180677
Pt	8.823475	0.000000	0.000000
Pt	11.029344	-2.206996	-2.206996
W	7.720541	-1.103498	-3.310493
W	12.132279	1.103498	-1.103498
W	14.338147	-1.103498	-1.103498
W	9.926410	1.103498	-3.310493
O	3.438017	-5.387673	-5.387673
O	-0.973721	-3.440310	-7.854301
O	0.973721	-5.387673	-7.854301
O	1.232148	-3.180677	-5.647305
O	5.385458	-3.440310	-5.387673
O	1.232148	-1.233314	-7.594669
O	3.179589	-1.233314	-5.647305
O	3.179589	-3.180677	-7.594669
Pt	0.000000	-4.413991	-4.413991
Pt	2.205869	-6.620987	-6.620987
W	-1.102934	-5.517489	-7.724485
W	3.308803	-3.310493	-5.517489
W	5.514672	-5.517489	-5.517489
W	1.102934	-3.310493	-7.724485
O	7.849755	-0.973682	-5.387673
O	3.438017	0.973682	-7.854301
O	5.385458	-0.973682	-7.854301
O	5.643886	1.233314	-5.647305
O	9.797196	0.973682	-5.387673
O	5.643886	3.180677	-7.594669
O	7.591327	3.180677	-5.647305
O	7.591327	1.233314	-7.594669
Pt	4.411738	0.000000	-4.413991
Pt	6.617607	-2.206996	-6.620987
W	3.308803	-1.103498	-7.724485
W	7.720541	1.103498	-5.517489
W	9.926410	-1.103498	-5.517489
W	5.514672	1.103498	-7.724485
