112

Mg	0.000000	0.000000	0.000000
Mg	2.320921	-2.321126	-2.321126
O	3.523686	-1.117920	-1.117920
O	-1.118147	1.117920	-3.524343
O	1.118147	-1.117920	-3.524343
O	1.202764	1.203217	-1.203217
O	5.759980	1.117920	-1.117920
O	1.202764	3.439046	-3.439046
O	3.439069	3.439046	-1.203217
O	3.439069	1.203217	-3.439046
Y	-1.160456	-1.160568	-3.481695
Y	5.802289	-1.160568	-1.160568
Y	1.160456	1.160568	-3.481695
Y	3.481377	1.160568	-1.160568
Mg	4.641834	4.642257	0.000000
Mg	6.962756	2.321131	-2.321126
O	8.165520	3.524337	-1.117920
O	3.523687	5.760177	-3.524343
O	5.759981	3.524337	-3.524343
O	5.844599	5.845474	-1.203217
O	10.401814	5.760177	-1.117920
O	5.844599	8.081303	-3.439046
O	8.080903	8.081303	-1.203217
O	8.080903	5.845474	-3.439046
Y	3.481379	3.481689	-3.481695
Y	10.444123	3.481689	-1.160568
Y	5.802290	5.802825	-3.481695
Y	8.123212	5.802825	-1.160568
Mg	-4.641834	0.000000	-4.642257
Mg	-2.320913	-2.321126	-6.963384
O	-1.118148	-1.117920	-5.760177
O	-5.759981	1.117920	-8.166600
O	-3.523687	-1.117920	-8.166600
O	-3.439070	1.203217	-5.845474
O	1.118146	1.117920	-5.760177
O	-3.439070	3.439046	-8.081303
O	-1.202766	3.439046	-5.845474
O	-1.202766	1.203217	-8.081303
Y	-5.802290	-1.160568	-8.123952
Y	1.160455	-1.160568	-5.802825
Y	-3.481379	1.160568	-8.123952
Y	-1.160457	1.160568	-5.802825
Mg	0.000000	4.642257	-4.642257
Mg	2.320921	2.321131	-6.963384
O	3.523686	3.524337	-5.760177
O	-1.118147	5.760177	-8.166600
O	1.118147	3.524337	-8.166600
O	1.202764	5.845474	-5.845474
O	5.759980	5.760177	-5.760177
O	1.202764	8.081303	-8.081303
O	3.439069	8.081303	-5.845474
O	3.439069	5.845474	-8.081303
Y	-1.160456	3.481689	-8.123952
Y	5.802289	3.481689	-5.802825
Y	1.160456	5.802825	-8.123952
Y	3.481377	5.802825	-5.802825
Mg	4.641834	-4.642257	0.000000
Mg	6.962756	-6.963384	-2.321126
O	8.165520	-5.760177	-1.117920
O	3.523687	-3.524337	-3.524343
O	5.759981	-5.760177	-3.524343
O	5.844599	-3.439040	-1.203217
O	10.401814	-3.524337	-1.117920
O	5.844599	-1.203211	-3.439046
O	8.080903	-1.203211	-1.203217
O	8.080903	-3.439040	-3.439046
Y	3.481379	-5.802825	-3.481695
Y	10.444123	-5.802825	-1.160568
Y	5.802290	-3.481689	-3.481695
Y	8.123212	-3.481689	-1.160568
Mg	9.283669	0.000000	0.000000
Mg	11.604590	-2.321126	-2.321126
O	12.807355	-1.117920	-1.117920
O	8.165521	1.117920	-3.524343
O	10.401816	-1.117920	-3.524343
O	10.486433	1.203217	-1.203217
O	15.043649	1.117920	-1.117920
O	10.486433	3.439046	-3.439046
O	12.722737	3.439046	-1.203217
O	12.722737	1.203217	-3.439046
Y	8.123213	-1.160568	-3.481695
Y	15.085957	-1.160568	-1.160568
Y	10.444124	1.160568	-3.481695
Y	12.765046	1.160568	-1.160568
Mg	0.000000	-4.642257	-4.642257
Mg	2.320921	-6.963384	-6.963384
O	3.523686	-5.760177	-5.760177
O	-1.118147	-3.524337	-8.166600
O	1.118147	-5.760177	-8.166600
O	1.202764	-3.439040	-5.845474
O	5.759980	-3.524337	-5.760177
O	1.202764	-1.203211	-8.081303
O	3.439069	-1.203211	-5.845474
O	3.439069	-3.439040	-8.081303
Y	-1.160456	-5.802825	-8.123952
Y	5.802289	-5.802825	-5.802825
Y	1.160456	-3.481689	-8.123952
Y	3.481377	-3.481689	-5.802825
Mg	4.641834	0.000000	-4.642257
Mg	6.962756	-2.321126	-6.963384
O	8.165520	-1.117920	-5.760177
O	3.523687	1.117920	-8.166600
O	5.759981	-1.117920	-8.166600
O	5.844599	1.203217	-5.845474
O	10.401814	1.117920	-5.760177
O	5.844599	3.439046	-8.081303
O	8.080903	3.439046	-5.845474
O	8.080903	1.203217	-8.081303
Y	3.481379	-1.160568	-8.123952
Y	10.444123	-1.160568	-5.802825
Y	5.802290	1.160568	-8.123952
Y	8.123212	1.160568	-5.802825
