40

Ca	1.786652	1.786652	1.786652
O	1.786652	0.000000	0.000000
O	0.000000	1.786652	0.000000
O	0.000000	0.000000	1.786652
Si	0.000000	0.000000	0.000000
Ca	1.786652	1.786652	5.359956
O	1.786652	0.000000	3.573304
O	0.000000	1.786652	3.573304
O	0.000000	0.000000	5.359956
Si	0.000000	0.000000	3.573304
Ca	1.786652	5.359956	1.786652
O	1.786652	3.573304	0.000000
O	0.000000	5.359956	0.000000
O	0.000000	3.573304	1.786652
Si	0.000000	3.573304	0.000000
Ca	1.786652	5.359956	5.359956
O	1.786652	3.573304	3.573304
O	0.000000	5.359956	3.573304
O	0.000000	3.573304	5.359956
Si	0.000000	3.573304	3.573304
Ca	5.359956	1.786652	1.786652
O	5.359956	0.000000	0.000000
O	3.573304	1.786652	0.000000
O	3.573304	0.000000	1.786652
Si	3.573304	0.000000	0.000000
Ca	5.359956	1.786652	5.359956
O	5.359956	0.000000	3.573304
O	3.573304	1.786652	3.573304
O	3.573304	0.000000	5.359956
Si	3.573304	0.000000	3.573304
Ca	5.359956	5.359956	1.786652
O	5.359956	3.573304	0.000000
O	3.573304	5.359956	0.000000
O	3.573304	3.573304	1.786652
Si	3.573304	3.573304	0.000000
Ca	5.359956	5.359956	5.359956
O	5.359956	3.573304	3.573304
O	3.573304	5.359956	3.573304
O	3.573304	3.573304	5.359956
Si	3.573304	3.573304	3.573304
