40

Ag	0.000000	0.000000	0.000000
Fe	1.894511	1.894511	1.894511
O	1.894511	1.894511	0.000000
O	1.894511	0.000000	1.894511
O	0.000000	1.894511	1.894511
Ag	0.000000	0.000000	3.789012
Fe	1.894511	1.894511	5.683522
O	1.894511	1.894511	3.789012
O	1.894511	0.000000	5.683522
O	0.000000	1.894511	5.683522
Ag	0.000000	3.789012	0.000000
Fe	1.894511	5.683522	1.894511
O	1.894511	5.683522	0.000000
O	1.894511	3.789012	1.894511
O	0.000000	5.683522	1.894511
Ag	0.000000	3.789012	3.789012
Fe	1.894511	5.683522	5.683522
O	1.894511	5.683522	3.789012
O	1.894511	3.789012	5.683522
O	0.000000	5.683522	5.683522
Ag	3.789012	0.000000	0.000000
Fe	5.683522	1.894511	1.894511
O	5.683522	1.894511	0.000000
O	5.683522	0.000000	1.894511
O	3.789012	1.894511	1.894511
Ag	3.789012	0.000000	3.789012
Fe	5.683522	1.894511	5.683522
O	5.683522	1.894511	3.789012
O	5.683522	0.000000	5.683522
O	3.789012	1.894511	5.683522
Ag	3.789012	3.789012	0.000000
Fe	5.683522	5.683522	1.894511
O	5.683522	5.683522	0.000000
O	5.683522	3.789012	1.894511
O	3.789012	5.683522	1.894511
Ag	3.789012	3.789012	3.789012
Fe	5.683522	5.683522	5.683522
O	5.683522	5.683522	3.789012
O	5.683522	3.789012	5.683522
O	3.789012	5.683522	5.683522
