112

Mg	0.000000	0.000000	0.000000
Mg	2.300555	-2.301038	-2.301038
O	3.507453	-1.093515	-1.093515
O	-1.093657	1.093515	-3.508562
O	1.093657	-1.093515	-3.508562
O	1.206898	1.207523	-1.207523
O	5.694767	1.093515	-1.093515
O	1.206898	3.394553	-3.394553
O	3.394212	3.394553	-1.207523
O	3.394212	1.207523	-3.394553
Tm	-1.150278	-1.150519	-3.451557
Tm	3.450833	1.150519	-1.150519
Tm	5.751388	-1.150519	-1.150519
Tm	1.150278	1.150519	-3.451557
Mg	4.601110	4.602076	0.000000
Mg	6.901665	2.301038	-2.301038
O	8.108563	3.508562	-1.093515
O	3.507453	5.695591	-3.508562
O	5.694767	3.508562	-3.508562
O	5.808008	5.809600	-1.207523
O	10.295877	5.695591	-1.093515
O	5.808008	7.996629	-3.394553
O	7.995322	7.996629	-1.207523
O	7.995322	5.809600	-3.394553
Tm	3.450833	3.451557	-3.451557
Tm	8.051943	5.752595	-1.150519
Tm	10.352498	3.451557	-1.150519
Tm	5.751388	5.752595	-3.451557
Mg	-4.601110	0.000000	-4.602076
Mg	-2.300555	-2.301038	-6.903114
O	-1.093657	-1.093515	-5.695591
O	-5.694767	1.093515	-8.110638
O	-3.507453	-1.093515	-8.110638
O	-3.394212	1.207523	-5.809600
O	1.093657	1.093515	-5.695591
O	-3.394212	3.394553	-7.996629
O	-1.206898	3.394553	-5.809600
O	-1.206898	1.207523	-7.996629
Tm	-5.751388	-1.150519	-8.053633
Tm	-1.150278	1.150519	-5.752595
Tm	1.150278	-1.150519	-5.752595
Tm	-3.450833	1.150519	-8.053633
Mg	0.000000	4.602076	-4.602076
Mg	2.300555	2.301038	-6.903114
O	3.507453	3.508562	-5.695591
O	-1.093657	5.695591	-8.110638
O	1.093657	3.508562	-8.110638
O	1.206898	5.809600	-5.809600
O	5.694767	5.695591	-5.695591
O	1.206898	7.996629	-7.996629
O	3.394212	7.996629	-5.809600
O	3.394212	5.809600	-7.996629
Tm	-1.150278	3.451557	-8.053633
Tm	3.450833	5.752595	-5.752595
Tm	5.751388	3.451557	-5.752595
Tm	1.150278	5.752595	-8.053633
Mg	4.601110	-4.602076	0.000000
Mg	6.901665	-6.903114	-2.301038
O	8.108563	-5.695591	-1.093515
O	3.507453	-3.508562	-3.508562
O	5.694767	-5.695591	-3.508562
O	5.808008	-3.394553	-1.207523
O	10.295877	-3.508562	-1.093515
O	5.808008	-1.207523	-3.394553
O	7.995322	-1.207523	-1.207523
O	7.995322	-3.394553	-3.394553
Tm	3.450833	-5.752595	-3.451557
Tm	8.051943	-3.451557	-1.150519
Tm	10.352498	-5.752595	-1.150519
Tm	5.751388	-3.451557	-3.451557
Mg	9.202220	0.000000	0.000000
Mg	11.502775	-2.301038	-2.301038
O	12.709673	-1.093515	-1.093515
O	8.108563	1.093515	-3.508562
O	10.295877	-1.093515	-3.508562
O	10.409118	1.207523	-1.207523
O	14.896987	1.093515	-1.093515
O	10.409118	3.394553	-3.394553
O	12.596432	3.394553	-1.207523
O	12.596432	1.207523	-3.394553
Tm	8.051943	-1.150519	-3.451557
Tm	12.653053	1.150519	-1.150519
Tm	14.953608	-1.150519	-1.150519
Tm	10.352498	1.150519	-3.451557
Mg	0.000000	-4.602076	-4.602076
Mg	2.300555	-6.903114	-6.903114
O	3.507453	-5.695591	-5.695591
O	-1.093657	-3.508562	-8.110638
O	1.093657	-5.695591	-8.110638
O	1.206898	-3.394553	-5.809600
O	5.694767	-3.508562	-5.695591
O	1.206898	-1.207523	-7.996629
O	3.394212	-1.207523	-5.809600
O	3.394212	-3.394553	-7.996629
Tm	-1.150278	-5.752595	-8.053633
Tm	3.450833	-3.451557	-5.752595
Tm	5.751388	-5.752595	-5.752595
Tm	1.150278	-3.451557	-8.053633
Mg	4.601110	0.000000	-4.602076
Mg	6.901665	-2.301038	-6.903114
O	8.108563	-1.093515	-5.695591
O	3.507453	1.093515	-8.110638
O	5.694767	-1.093515	-8.110638
O	5.808008	1.207523	-5.809600
O	10.295877	1.093515	-5.695591
O	5.808008	3.394553	-7.996629
O	7.995322	3.394553	-5.809600
O	7.995322	1.207523	-7.996629
Tm	3.450833	-1.150519	-8.053633
Tm	8.051943	1.150519	-5.752595
Tm	10.352498	-1.150519	-5.752595
Tm	5.751388	1.150519	-8.053633
