40

Li	1.731541	1.731541	1.731541
O	0.000000	1.731541	1.731541
O	1.731541	0.000000	1.731541
O	1.731541	1.731541	0.000000
W	0.000000	0.000000	0.000000
Li	1.731541	1.731541	5.194623
O	0.000000	1.731541	5.194623
O	1.731541	0.000000	5.194623
O	1.731541	1.731541	3.463082
W	0.000000	0.000000	3.463082
Li	1.731541	5.194623	1.731541
O	0.000000	5.194623	1.731541
O	1.731541	3.463082	1.731541
O	1.731541	5.194623	0.000000
W	0.000000	3.463082	0.000000
Li	1.731541	5.194623	5.194623
O	0.000000	5.194623	5.194623
O	1.731541	3.463082	5.194623
O	1.731541	5.194623	3.463082
W	0.000000	3.463082	3.463082
Li	5.194623	1.731541	1.731541
O	3.463082	1.731541	1.731541
O	5.194623	0.000000	1.731541
O	5.194623	1.731541	0.000000
W	3.463082	0.000000	0.000000
Li	5.194623	1.731541	5.194623
O	3.463082	1.731541	5.194623
O	5.194623	0.000000	5.194623
O	5.194623	1.731541	3.463082
W	3.463082	0.000000	3.463082
Li	5.194623	5.194623	1.731541
O	3.463082	5.194623	1.731541
O	5.194623	3.463082	1.731541
O	5.194623	5.194623	0.000000
W	3.463082	3.463082	0.000000
Li	5.194623	5.194623	5.194623
O	3.463082	5.194623	5.194623
O	5.194623	3.463082	5.194623
O	5.194623	5.194623	3.463082
W	3.463082	3.463082	3.463082
