112

Hf	0.000000	0.000000	0.000000
Hf	2.422919	-2.423202	-2.423202
O	3.549995	-1.294560	-1.294560
O	-1.295844	1.294560	-3.551844
O	1.295844	-1.294560	-3.551844
O	1.127075	1.128642	-1.128642
O	6.141682	1.294560	-1.294560
O	1.127075	3.717761	-3.717761
O	3.718763	3.717761	-1.128642
O	3.718763	1.128642	-3.717761
U	-1.211460	-1.211601	-3.634803
U	3.634379	1.211601	-1.211601
U	6.057298	-1.211601	-1.211601
U	1.211460	1.211601	-3.634803
Hf	4.845838	4.846404	0.000000
Hf	7.268758	2.423202	-2.423202
O	8.395833	3.551844	-1.294560
O	3.549995	6.140963	-3.551844
O	6.141682	3.551844	-3.551844
O	5.972914	5.975046	-1.128642
O	10.987521	6.140963	-1.294560
O	5.972914	8.564165	-3.717761
O	8.564601	8.564165	-1.128642
O	8.564601	5.975046	-3.717761
U	3.634379	3.634803	-3.634803
U	8.480217	6.058005	-1.211601
U	10.903136	3.634803	-1.211601
U	6.057298	6.058005	-3.634803
Hf	-4.845838	0.000000	-4.846404
Hf	-2.422919	-2.423202	-7.269605
O	-1.295844	-1.294560	-6.140963
O	-6.141682	1.294560	-8.398248
O	-3.549995	-1.294560	-8.398248
O	-3.718763	1.128642	-5.975046
O	1.295844	1.294560	-6.140963
O	-3.718763	3.717761	-8.564165
O	-1.127075	3.717761	-5.975046
O	-1.127075	1.128642	-8.564165
U	-6.057298	-1.211601	-8.481206
U	-1.211460	1.211601	-6.058005
U	1.211460	-1.211601	-6.058005
U	-3.634379	1.211601	-8.481206
Hf	0.000000	4.846404	-4.846404
Hf	2.422919	2.423202	-7.269605
O	3.549995	3.551844	-6.140963
O	-1.295844	6.140963	-8.398248
O	1.295844	3.551844	-8.398248
O	1.127075	5.975046	-5.975046
O	6.141682	6.140963	-6.140963
O	1.127075	8.564165	-8.564165
O	3.718763	8.564165	-5.975046
O	3.718763	5.975046	-8.564165
U	-1.211460	3.634803	-8.481206
U	3.634379	6.058005	-6.058005
U	6.057298	3.634803	-6.058005
U	1.211460	6.058005	-8.481206
Hf	4.845838	-4.846404	0.000000
Hf	7.268758	-7.269605	-2.423202
O	8.395833	-6.140963	-1.294560
O	3.549995	-3.551844	-3.551844
O	6.141682	-6.140963	-3.551844
O	5.972914	-3.717761	-1.128642
O	10.987521	-3.551844	-1.294560
O	5.972914	-1.128642	-3.717761
O	8.564601	-1.128642	-1.128642
O	8.564601	-3.717761	-3.717761
U	3.634379	-6.058005	-3.634803
U	8.480217	-3.634803	-1.211601
U	10.903136	-6.058005	-1.211601
U	6.057298	-3.634803	-3.634803
Hf	9.691677	0.000000	0.000000
Hf	12.114596	-2.423202	-2.423202
O	13.241672	-1.294560	-1.294560
O	8.395833	1.294560	-3.551844
O	10.987521	-1.294560	-3.551844
O	10.818752	1.128642	-1.128642
O	15.833359	1.294560	-1.294560
O	10.818752	3.717761	-3.717761
O	13.410440	3.717761	-1.128642
O	13.410440	1.128642	-3.717761
U	8.480217	-1.211601	-3.634803
U	13.326056	1.211601	-1.211601
U	15.748975	-1.211601	-1.211601
U	10.903136	1.211601	-3.634803
Hf	0.000000	-4.846404	-4.846404
Hf	2.422919	-7.269605	-7.269605
O	3.549995	-6.140963	-6.140963
O	-1.295844	-3.551844	-8.398248
O	1.295844	-6.140963	-8.398248
O	1.127075	-3.717761	-5.975046
O	6.141682	-3.551844	-6.140963
O	1.127075	-1.128642	-8.564165
O	3.718763	-1.128642	-5.975046
O	3.718763	-3.717761	-8.564165
U	-1.211460	-6.058005	-8.481206
U	3.634379	-3.634803	-6.058005
U	6.057298	-6.058005	-6.058005
U	1.211460	-3.634803	-8.481206
Hf	4.845838	0.000000	-4.846404
Hf	7.268758	-2.423202	-7.269605
O	8.395833	-1.294560	-6.140963
O	3.549995	1.294560	-8.398248
O	6.141682	-1.294560	-8.398248
O	5.972914	1.128642	-5.975046
O	10.987521	1.294560	-6.140963
O	5.972914	3.717761	-8.564165
O	8.564601	3.717761	-5.975046
O	8.564601	1.128642	-8.564165
U	3.634379	-1.211601	-8.481206
U	8.480217	1.211601	-6.058005
U	10.903136	-1.211601	-6.058005
U	6.057298	1.211601	-8.481206
