112

Ga	0.000000	0.000000	0.000000
Ga	2.574173	-2.574273	-2.574273
O	1.069107	1.069576	-1.069576
O	-1.505066	1.504697	-3.643839
O	3.643281	-1.504697	-1.504697
O	1.505066	-1.504697	-3.643839
O	1.069107	4.078961	-4.078961
O	4.079230	1.069576	-4.078961
O	4.079230	4.078961	-1.069576
O	6.653403	1.504697	-1.504697
Rb	-1.287082	-1.287132	-3.861405
Rb	1.287082	1.287132	-3.861405
Rb	3.861255	1.287132	-1.287132
Rb	6.435419	-1.287132	-1.287132
Ga	5.148338	5.148538	0.000000
Ga	7.722512	2.574264	-2.574273
O	6.217445	6.218114	-1.069576
O	3.643272	6.653235	-3.643839
O	8.791619	3.643840	-1.504697
O	6.653404	3.643840	-3.643839
O	6.217445	9.227498	-4.078961
O	9.227568	6.218114	-4.078961
O	9.227568	9.227498	-1.069576
O	11.801741	6.653235	-1.504697
Rb	3.861256	3.861406	-3.861405
Rb	6.435420	6.435669	-3.861405
Rb	9.009593	6.435669	-1.287132
Rb	11.583757	3.861406	-1.287132
Ga	-5.148338	0.000000	-5.148538
Ga	-2.574165	-2.574273	-7.722811
O	-4.079231	1.069576	-6.218114
O	-6.653404	1.504697	-8.792377
O	-1.505057	-1.504697	-6.653235
O	-3.643272	-1.504697	-8.792377
O	-4.079231	4.078961	-9.227498
O	-1.069108	1.069576	-9.227498
O	-1.069108	4.078961	-6.218114
O	1.505065	1.504697	-6.653235
Rb	-6.435420	-1.287132	-9.009943
Rb	-3.861256	1.287132	-9.009943
Rb	-1.287083	1.287132	-6.435669
Rb	1.287081	-1.287132	-6.435669
Ga	0.000000	5.148538	-5.148538
Ga	2.574173	2.574264	-7.722811
O	1.069107	6.218114	-6.218114
O	-1.505066	6.653235	-8.792377
O	3.643281	3.643840	-6.653235
O	1.505066	3.643840	-8.792377
O	1.069107	9.227498	-9.227498
O	4.079230	6.218114	-9.227498
O	4.079230	9.227498	-6.218114
O	6.653403	6.653235	-6.653235
Rb	-1.287082	3.861406	-9.009943
Rb	1.287082	6.435669	-9.009943
Rb	3.861255	6.435669	-6.435669
Rb	6.435419	3.861406	-6.435669
Ga	5.148338	-5.148538	0.000000
Ga	7.722512	-7.722811	-2.574273
O	6.217445	-4.078962	-1.069576
O	3.643272	-3.643840	-3.643839
O	8.791619	-6.653235	-1.504697
O	6.653404	-6.653235	-3.643839
O	6.217445	-1.069577	-4.078961
O	9.227568	-4.078962	-4.078961
O	9.227568	-1.069577	-1.069576
O	11.801741	-3.643840	-1.504697
Rb	3.861256	-6.435669	-3.861405
Rb	6.435420	-3.861406	-3.861405
Rb	9.009593	-3.861406	-1.287132
Rb	11.583757	-6.435669	-1.287132
Ga	10.296676	0.000000	0.000000
Ga	12.870850	-2.574273	-2.574273
O	11.365783	1.069576	-1.069576
O	8.791610	1.504697	-3.643839
O	13.939957	-1.504697	-1.504697
O	11.801742	-1.504697	-3.643839
O	11.365783	4.078961	-4.078961
O	14.375906	1.069576	-4.078961
O	14.375906	4.078961	-1.069576
O	16.950079	1.504697	-1.504697
Rb	9.009594	-1.287132	-3.861405
Rb	11.583758	1.287132	-3.861405
Rb	14.157931	1.287132	-1.287132
Rb	16.732095	-1.287132	-1.287132
Ga	0.000000	-5.148538	-5.148538
Ga	2.574173	-7.722811	-7.722811
O	1.069107	-4.078962	-6.218114
O	-1.505066	-3.643840	-8.792377
O	3.643281	-6.653235	-6.653235
O	1.505066	-6.653235	-8.792377
O	1.069107	-1.069577	-9.227498
O	4.079230	-4.078962	-9.227498
O	4.079230	-1.069577	-6.218114
O	6.653403	-3.643840	-6.653235
Rb	-1.287082	-6.435669	-9.009943
Rb	1.287082	-3.861406	-9.009943
Rb	3.861255	-3.861406	-6.435669
Rb	6.435419	-6.435669	-6.435669
Ga	5.148338	0.000000	-5.148538
Ga	7.722512	-2.574273	-7.722811
O	6.217445	1.069576	-6.218114
O	3.643272	1.504697	-8.792377
O	8.791619	-1.504697	-6.653235
O	6.653404	-1.504697	-8.792377
O	6.217445	4.078961	-9.227498
O	9.227568	1.069576	-9.227498
O	9.227568	4.078961	-6.218114
O	11.801741	1.504697	-6.653235
Rb	3.861256	-1.287132	-9.009943
Rb	6.435420	1.287132	-9.009943
Rb	9.009593	1.287132	-6.435669
Rb	11.583757	-1.287132	-6.435669
