112

Al	-1.011796	-1.011796	-3.035388
Al	3.035388	1.011796	-1.011796
Al	5.058980	-1.011796	-1.011796
Al	1.011796	1.011796	-3.035388
O	1.126378	1.126377	-1.126377
O	3.149969	-0.897214	-0.897214
O	-0.897214	0.897214	-3.149969
O	0.897214	-0.897214	-3.149969
O	2.920806	2.920806	-1.126377
O	4.944398	0.897214	-0.897214
O	1.126377	2.920806	-2.920806
O	2.920806	1.126377	-2.920806
Zn	0.000000	0.000000	0.000000
Zn	2.023592	-2.023592	-2.023592
Al	3.035388	3.035388	-3.035388
Al	7.082571	5.058980	-1.011796
Al	9.106163	3.035388	-1.011796
Al	5.058980	5.058980	-3.035388
O	5.173561	5.173561	-1.126377
O	7.197153	3.149969	-0.897214
O	3.149969	4.944398	-3.149969
O	4.944398	3.149969	-3.149969
O	6.967990	6.967990	-1.126377
O	8.991582	4.944398	-0.897214
O	5.173561	6.967990	-2.920806
O	6.967990	5.173561	-2.920806
Zn	4.047184	4.047184	0.000000
Zn	6.070775	2.023592	-2.023592
Al	-5.058980	-1.011796	-7.082571
Al	-1.011796	1.011796	-5.058980
Al	1.011796	-1.011796	-5.058980
Al	-3.035388	1.011796	-7.082571
O	-2.920806	1.126377	-5.173561
O	-0.897214	-0.897214	-4.944398
O	-4.944398	0.897214	-7.197153
O	-3.149969	-0.897214	-7.197153
O	-1.126377	2.920806	-5.173561
O	0.897214	0.897214	-4.944398
O	-2.920806	2.920806	-6.967990
O	-1.126378	1.126377	-6.967990
Zn	-4.047184	0.000000	-4.047184
Zn	-2.023592	-2.023592	-6.070775
Al	-1.011796	3.035388	-7.082571
Al	3.035388	5.058980	-5.058980
Al	5.058980	3.035388	-5.058980
Al	1.011796	5.058980	-7.082571
O	1.126378	5.173561	-5.173561
O	3.149969	3.149969	-4.944398
O	-0.897214	4.944398	-7.197153
O	0.897214	3.149969	-7.197153
O	2.920806	6.967990	-5.173561
O	4.944398	4.944398	-4.944398
O	1.126377	6.967990	-6.967990
O	2.920806	5.173561	-6.967990
Zn	0.000000	4.047184	-4.047184
Zn	2.023592	2.023592	-6.070775
Al	3.035388	-5.058980	-3.035388
Al	7.082571	-3.035388	-1.011796
Al	9.106163	-5.058980	-1.011796
Al	5.058980	-3.035388	-3.035388
O	5.173561	-2.920806	-1.126377
O	7.197153	-4.944398	-0.897214
O	3.149969	-3.149969	-3.149969
O	4.944398	-4.944398	-3.149969
O	6.967990	-1.126378	-1.126377
O	8.991582	-3.149969	-0.897214
O	5.173561	-1.126378	-2.920806
O	6.967990	-2.920806	-2.920806
Zn	4.047184	-4.047184	0.000000
Zn	6.070775	-6.070775	-2.023592
Al	7.082571	-1.011796	-3.035388
Al	11.129755	1.011796	-1.011796
Al	13.153347	-1.011796	-1.011796
Al	9.106163	1.011796	-3.035388
O	9.220745	1.126377	-1.126377
O	11.244337	-0.897214	-0.897214
O	7.197153	0.897214	-3.149969
O	8.991582	-0.897214	-3.149969
O	11.015173	2.920806	-1.126377
O	13.038765	0.897214	-0.897214
O	9.220745	2.920806	-2.920806
O	11.015173	1.126377	-2.920806
Zn	8.094367	0.000000	0.000000
Zn	10.117959	-2.023592	-2.023592
Al	-1.011796	-5.058980	-7.082571
Al	3.035388	-3.035388	-5.058980
Al	5.058980	-5.058980	-5.058980
Al	1.011796	-3.035388	-7.082571
O	1.126378	-2.920806	-5.173561
O	3.149969	-4.944398	-4.944398
O	-0.897214	-3.149969	-7.197153
O	0.897214	-4.944398	-7.197153
O	2.920806	-1.126378	-5.173561
O	4.944398	-3.149969	-4.944398
O	1.126377	-1.126378	-6.967990
O	2.920806	-2.920806	-6.967990
Zn	0.000000	-4.047184	-4.047184
Zn	2.023592	-6.070775	-6.070775
Al	3.035388	-1.011796	-7.082571
Al	7.082571	1.011796	-5.058980
Al	9.106163	-1.011796	-5.058980
Al	5.058980	1.011796	-7.082571
O	5.173561	1.126377	-5.173561
O	7.197153	-0.897214	-4.944398
O	3.149969	0.897214	-7.197153
O	4.944398	-0.897214	-7.197153
O	6.967990	2.920806	-5.173561
O	8.991582	0.897214	-4.944398
O	5.173561	2.920806	-6.967990
O	6.967990	1.126377	-6.967990
Zn	4.047184	0.000000	-4.047184
Zn	6.070775	-2.023592	-6.070775
