112

Ni	0.000000	0.000000	0.000000
Ni	2.260375	-2.257660	-2.257660
O	3.349519	-1.181090	-1.181090
O	-1.171231	1.181090	-3.334230
O	1.171231	-1.181090	-3.334230
O	1.089144	1.076570	-1.076570
O	5.691980	1.181090	-1.181090
O	1.089144	3.438751	-3.438751
O	3.431605	3.438751	-1.076570
O	3.431605	1.076570	-3.438751
Yb	-1.130187	-1.128830	-3.386491
Yb	3.390562	1.128830	-1.128830
Yb	5.650937	-1.128830	-1.128830
Yb	1.130187	1.128830	-3.386491
Ni	4.520749	4.515321	0.000000
Ni	6.781124	2.257660	-2.257660
O	7.870268	3.334230	-1.181090
O	3.349519	5.696411	-3.334230
O	5.691980	3.334230	-3.334230
O	5.609893	5.591891	-1.076570
O	10.212729	5.696411	-1.181090
O	5.609893	7.954072	-3.438751
O	7.952355	7.954072	-1.076570
O	7.952355	5.591891	-3.438751
Yb	3.390562	3.386491	-3.386491
Yb	7.911311	5.644151	-1.128830
Yb	10.171686	3.386491	-1.128830
Yb	5.650937	5.644151	-3.386491
Ni	-4.520749	0.000000	-4.515321
Ni	-2.260375	-2.257660	-6.772981
O	-1.171231	-1.181090	-5.696411
O	-5.691980	1.181090	-7.849551
O	-3.349519	-1.181090	-7.849551
O	-3.431605	1.076570	-5.591891
O	1.171231	1.181090	-5.696411
O	-3.431605	3.438751	-7.954072
O	-1.089144	3.438751	-5.591891
O	-1.089144	1.076570	-7.954072
Yb	-5.650937	-1.128830	-7.901811
Yb	-1.130187	1.128830	-5.644151
Yb	1.130187	-1.128830	-5.644151
Yb	-3.390562	1.128830	-7.901811
Ni	0.000000	4.515321	-4.515321
Ni	2.260375	2.257660	-6.772981
O	3.349519	3.334230	-5.696411
O	-1.171231	5.696411	-7.849551
O	1.171231	3.334230	-7.849551
O	1.089144	5.591891	-5.591891
O	5.691980	5.696411	-5.696411
O	1.089144	7.954072	-7.954072
O	3.431605	7.954072	-5.591891
O	3.431605	5.591891	-7.954072
Yb	-1.130187	3.386491	-7.901811
Yb	3.390562	5.644151	-5.644151
Yb	5.650937	3.386491	-5.644151
Yb	1.130187	5.644151	-7.901811
Ni	4.520749	-4.515321	0.000000
Ni	6.781124	-6.772981	-2.257660
O	7.870268	-5.696411	-1.181090
O	3.349519	-3.334230	-3.334230
O	5.691980	-5.696411	-3.334230
O	5.609893	-3.438751	-1.076570
O	10.212729	-3.334230	-1.181090
O	5.609893	-1.076570	-3.438751
O	7.952355	-1.076570	-1.076570
O	7.952355	-3.438751	-3.438751
Yb	3.390562	-5.644151	-3.386491
Yb	7.911311	-3.386491	-1.128830
Yb	10.171686	-5.644151	-1.128830
Yb	5.650937	-3.386491	-3.386491
Ni	9.041499	0.000000	0.000000
Ni	11.301873	-2.257660	-2.257660
O	12.391017	-1.181090	-1.181090
O	7.870268	1.181090	-3.334230
O	10.212729	-1.181090	-3.334230
O	10.130643	1.076570	-1.076570
O	14.733479	1.181090	-1.181090
O	10.130643	3.438751	-3.438751
O	12.473104	3.438751	-1.076570
O	12.473104	1.076570	-3.438751
Yb	7.911311	-1.128830	-3.386491
Yb	12.432061	1.128830	-1.128830
Yb	14.692435	-1.128830	-1.128830
Yb	10.171686	1.128830	-3.386491
Ni	0.000000	-4.515321	-4.515321
Ni	2.260375	-6.772981	-6.772981
O	3.349519	-5.696411	-5.696411
O	-1.171231	-3.334230	-7.849551
O	1.171231	-5.696411	-7.849551
O	1.089144	-3.438751	-5.591891
O	5.691980	-3.334230	-5.696411
O	1.089144	-1.076570	-7.954072
O	3.431605	-1.076570	-5.591891
O	3.431605	-3.438751	-7.954072
Yb	-1.130187	-5.644151	-7.901811
Yb	3.390562	-3.386491	-5.644151
Yb	5.650937	-5.644151	-5.644151
Yb	1.130187	-3.386491	-7.901811
Ni	4.520749	0.000000	-4.515321
Ni	6.781124	-2.257660	-6.772981
O	7.870268	-1.181090	-5.696411
O	3.349519	1.181090	-7.849551
O	5.691980	-1.181090	-7.849551
O	5.609893	1.076570	-5.591891
O	10.212729	1.181090	-5.696411
O	5.609893	3.438751	-7.954072
O	7.952355	3.438751	-5.591891
O	7.952355	1.076570	-7.954072
Yb	3.390562	-1.128830	-7.901811
Yb	7.911311	1.128830	-5.644151
Yb	10.171686	-1.128830	-5.644151
Yb	5.650937	1.128830	-7.901811
