40

Ce	2.245576	2.245576	2.245576
Cu	0.000000	0.000000	0.000000
O	2.245576	2.245576	0.000000
O	2.245576	0.000000	2.245576
O	0.000000	2.245576	2.245576
Ce	2.245576	2.245576	6.736729
Cu	0.000000	0.000000	4.491153
O	2.245576	2.245576	4.491153
O	2.245576	0.000000	6.736729
O	0.000000	2.245576	6.736729
Ce	2.245576	6.736729	2.245576
Cu	0.000000	4.491153	0.000000
O	2.245576	6.736729	0.000000
O	2.245576	4.491153	2.245576
O	0.000000	6.736729	2.245576
Ce	2.245576	6.736729	6.736729
Cu	0.000000	4.491153	4.491153
O	2.245576	6.736729	4.491153
O	2.245576	4.491153	6.736729
O	0.000000	6.736729	6.736729
Ce	6.736729	2.245576	2.245576
Cu	4.491153	0.000000	0.000000
O	6.736729	2.245576	0.000000
O	6.736729	0.000000	2.245576
O	4.491153	2.245576	2.245576
Ce	6.736729	2.245576	6.736729
Cu	4.491153	0.000000	4.491153
O	6.736729	2.245576	4.491153
O	6.736729	0.000000	6.736729
O	4.491153	2.245576	6.736729
Ce	6.736729	6.736729	2.245576
Cu	4.491153	4.491153	0.000000
O	6.736729	6.736729	0.000000
O	6.736729	4.491153	2.245576
O	4.491153	6.736729	2.245576
Ce	6.736729	6.736729	6.736729
Cu	4.491153	4.491153	4.491153
O	6.736729	6.736729	4.491153
O	6.736729	4.491153	6.736729
O	4.491153	6.736729	6.736729
