40

Ba	2.747086	2.747086	0.000000
Ba	2.747086	0.000000	2.747086
Ba	0.000000	2.747086	2.747086
O	2.747086	2.747086	2.747086
Sn	0.000000	0.000000	0.000000
Ba	2.747086	2.747086	5.494178
Ba	2.747086	0.000000	8.241264
Ba	0.000000	2.747086	8.241264
O	2.747086	2.747086	8.241264
Sn	0.000000	0.000000	5.494178
Ba	2.747086	8.241264	0.000000
Ba	2.747086	5.494178	2.747086
Ba	0.000000	8.241264	2.747086
O	2.747086	8.241264	2.747086
Sn	0.000000	5.494178	0.000000
Ba	2.747086	8.241264	5.494178
Ba	2.747086	5.494178	8.241264
Ba	0.000000	8.241264	8.241264
O	2.747086	8.241264	8.241264
Sn	0.000000	5.494178	5.494178
Ba	8.241264	2.747086	0.000000
Ba	8.241264	0.000000	2.747086
Ba	5.494178	2.747086	2.747086
O	8.241264	2.747086	2.747086
Sn	5.494178	0.000000	0.000000
Ba	8.241264	2.747086	5.494178
Ba	8.241264	0.000000	8.241264
Ba	5.494178	2.747086	8.241264
O	8.241264	2.747086	8.241264
Sn	5.494178	0.000000	5.494178
Ba	8.241264	8.241264	0.000000
Ba	8.241264	5.494178	2.747086
Ba	5.494178	8.241264	2.747086
O	8.241264	8.241264	2.747086
Sn	5.494178	5.494178	0.000000
Ba	8.241264	8.241264	5.494178
Ba	8.241264	5.494178	8.241264
Ba	5.494178	8.241264	8.241264
O	8.241264	8.241264	8.241264
Sn	5.494178	5.494178	5.494178
