40

Ba	0.000000	0.000000	0.000000
K	2.224655	2.224655	2.224655
O	2.224655	2.224655	0.000000
O	2.224655	0.000000	2.224655
O	0.000000	2.224655	2.224655
Ba	0.000000	0.000000	4.449306
K	2.224655	2.224655	6.673962
O	2.224655	2.224655	4.449306
O	2.224655	0.000000	6.673962
O	0.000000	2.224655	6.673962
Ba	0.000000	4.449306	0.000000
K	2.224655	6.673962	2.224655
O	2.224655	6.673962	0.000000
O	2.224655	4.449306	2.224655
O	0.000000	6.673962	2.224655
Ba	0.000000	4.449306	4.449306
K	2.224655	6.673962	6.673962
O	2.224655	6.673962	4.449306
O	2.224655	4.449306	6.673962
O	0.000000	6.673962	6.673962
Ba	4.449306	0.000000	0.000000
K	6.673962	2.224655	2.224655
O	6.673962	2.224655	0.000000
O	6.673962	0.000000	2.224655
O	4.449306	2.224655	2.224655
Ba	4.449306	0.000000	4.449306
K	6.673962	2.224655	6.673962
O	6.673962	2.224655	4.449306
O	6.673962	0.000000	6.673962
O	4.449306	2.224655	6.673962
Ba	4.449306	4.449306	0.000000
K	6.673962	6.673962	2.224655
O	6.673962	6.673962	0.000000
O	6.673962	4.449306	2.224655
O	4.449306	6.673962	2.224655
Ba	4.449306	4.449306	4.449306
K	6.673962	6.673962	6.673962
O	6.673962	6.673962	4.449306
O	6.673962	4.449306	6.673962
O	4.449306	6.673962	6.673962
