112

Cu	0.000000	0.000000	0.000000
Cu	2.103919	-2.104394	-2.104394
Ga	-1.051959	-1.052197	-3.156591
Ga	3.155878	1.052197	-1.052197
Ga	5.259797	-1.052197	-1.052197
Ga	1.051959	1.052197	-3.156591
O	3.251683	-0.955792	-0.955792
O	-0.956155	0.955792	-3.252996
O	0.956155	-0.955792	-3.252996
O	1.147764	1.148602	-1.148602
O	5.163993	0.955792	-0.955792
O	1.147764	3.060185	-3.060185
O	3.060074	3.060185	-1.148602
O	3.060074	1.148602	-3.060185
Cu	4.207838	4.208787	0.000000
Cu	6.311757	2.104394	-2.104394
Ga	3.155878	3.156591	-3.156591
Ga	7.363716	5.260984	-1.052197
Ga	9.467635	3.156591	-1.052197
Ga	5.259797	5.260984	-3.156591
O	7.459521	3.252996	-0.955792
O	3.251683	5.164579	-3.252996
O	5.163993	3.252996	-3.252996
O	5.355602	5.357390	-1.148602
O	9.371831	5.164579	-0.955792
O	5.355602	7.268973	-3.060185
O	7.267912	7.268973	-1.148602
O	7.267912	5.357390	-3.060185
Cu	-4.207838	0.000000	-4.208787
Cu	-2.103919	-2.104394	-6.313181
Ga	-5.259797	-1.052197	-7.365378
Ga	-1.051959	1.052197	-5.260984
Ga	1.051959	-1.052197	-5.260984
Ga	-3.155878	1.052197	-7.365378
O	-0.956155	-0.955792	-5.164579
O	-5.163993	0.955792	-7.461783
O	-3.251683	-0.955792	-7.461783
O	-3.060074	1.148602	-5.357390
O	0.956155	0.955792	-5.164579
O	-3.060074	3.060185	-7.268973
O	-1.147764	3.060185	-5.357390
O	-1.147764	1.148602	-7.268973
Cu	0.000000	4.208787	-4.208787
Cu	2.103919	2.104394	-6.313181
Ga	-1.051959	3.156591	-7.365378
Ga	3.155878	5.260984	-5.260984
Ga	5.259797	3.156591	-5.260984
Ga	1.051959	5.260984	-7.365378
O	3.251683	3.252996	-5.164579
O	-0.956155	5.164579	-7.461783
O	0.956155	3.252996	-7.461783
O	1.147764	5.357390	-5.357390
O	5.163993	5.164579	-5.164579
O	1.147764	7.268973	-7.268973
O	3.060074	7.268973	-5.357390
O	3.060074	5.357390	-7.268973
Cu	4.207838	-4.208787	0.000000
Cu	6.311757	-6.313181	-2.104394
Ga	3.155878	-5.260984	-3.156591
Ga	7.363716	-3.156591	-1.052197
Ga	9.467635	-5.260984	-1.052197
Ga	5.259797	-3.156591	-3.156591
O	7.459521	-5.164579	-0.955792
O	3.251683	-3.252996	-3.252996
O	5.163993	-5.164579	-3.252996
O	5.355602	-3.060185	-1.148602
O	9.371831	-3.252996	-0.955792
O	5.355602	-1.148602	-3.060185
O	7.267912	-1.148602	-1.148602
O	7.267912	-3.060185	-3.060185
Cu	8.415676	0.000000	0.000000
Cu	10.519595	-2.104394	-2.104394
Ga	7.363716	-1.052197	-3.156591
Ga	11.571554	1.052197	-1.052197
Ga	13.675473	-1.052197	-1.052197
Ga	9.467635	1.052197	-3.156591
O	11.667359	-0.955792	-0.955792
O	7.459521	0.955792	-3.252996
O	9.371831	-0.955792	-3.252996
O	9.563440	1.148602	-1.148602
O	13.579669	0.955792	-0.955792
O	9.563440	3.060185	-3.060185
O	11.475750	3.060185	-1.148602
O	11.475750	1.148602	-3.060185
Cu	0.000000	-4.208787	-4.208787
Cu	2.103919	-6.313181	-6.313181
Ga	-1.051959	-5.260984	-7.365378
Ga	3.155878	-3.156591	-5.260984
Ga	5.259797	-5.260984	-5.260984
Ga	1.051959	-3.156591	-7.365378
O	3.251683	-5.164579	-5.164579
O	-0.956155	-3.252996	-7.461783
O	0.956155	-5.164579	-7.461783
O	1.147764	-3.060185	-5.357390
O	5.163993	-3.252996	-5.164579
O	1.147764	-1.148602	-7.268973
O	3.060074	-1.148602	-5.357390
O	3.060074	-3.060185	-7.268973
Cu	4.207838	0.000000	-4.208787
Cu	6.311757	-2.104394	-6.313181
Ga	3.155878	-1.052197	-7.365378
Ga	7.363716	1.052197	-5.260984
Ga	9.467635	-1.052197	-5.260984
Ga	5.259797	1.052197	-7.365378
O	7.459521	-0.955792	-5.164579
O	3.251683	0.955792	-7.461783
O	5.163993	-0.955792	-7.461783
O	5.355602	1.148602	-5.357390
O	9.371831	0.955792	-5.164579
O	5.355602	3.060185	-7.268973
O	7.267912	3.060185	-5.357390
O	7.267912	1.148602	-7.268973
