40

Cr	1.917915	1.917915	1.917915
O	1.917915	1.917915	0.000000
O	0.000000	1.917915	1.917915
O	1.917915	0.000000	1.917915
Th	0.000000	0.000000	0.000000
Cr	1.917915	1.917915	5.753751
O	1.917915	1.917915	3.835837
O	0.000000	1.917915	5.753751
O	1.917915	0.000000	5.753751
Th	0.000000	0.000000	3.835837
Cr	1.917915	5.753751	1.917915
O	1.917915	5.753751	0.000000
O	0.000000	5.753751	1.917915
O	1.917915	3.835837	1.917915
Th	0.000000	3.835837	0.000000
Cr	1.917915	5.753751	5.753751
O	1.917915	5.753751	3.835837
O	0.000000	5.753751	5.753751
O	1.917915	3.835837	5.753751
Th	0.000000	3.835837	3.835837
Cr	5.753751	1.917915	1.917915
O	5.753751	1.917915	0.000000
O	3.835837	1.917915	1.917915
O	5.753751	0.000000	1.917915
Th	3.835837	0.000000	0.000000
Cr	5.753751	1.917915	5.753751
O	5.753751	1.917915	3.835837
O	3.835837	1.917915	5.753751
O	5.753751	0.000000	5.753751
Th	3.835837	0.000000	3.835837
Cr	5.753751	5.753751	1.917915
O	5.753751	5.753751	0.000000
O	3.835837	5.753751	1.917915
O	5.753751	3.835837	1.917915
Th	3.835837	3.835837	0.000000
Cr	5.753751	5.753751	5.753751
O	5.753751	5.753751	3.835837
O	3.835837	5.753751	5.753751
O	5.753751	3.835837	5.753751
Th	3.835837	3.835837	3.835837
