40

Hg	2.160417	2.160417	2.160417
K	0.000000	0.000000	0.000000
O	0.000000	2.160417	2.160417
O	2.160417	0.000000	2.160417
O	2.160417	2.160417	0.000000
Hg	2.160417	2.160417	6.481251
K	0.000000	0.000000	4.320834
O	0.000000	2.160417	6.481251
O	2.160417	0.000000	6.481251
O	2.160417	2.160417	4.320834
Hg	2.160417	6.481251	2.160417
K	0.000000	4.320834	0.000000
O	0.000000	6.481251	2.160417
O	2.160417	4.320834	2.160417
O	2.160417	6.481251	0.000000
Hg	2.160417	6.481251	6.481251
K	0.000000	4.320834	4.320834
O	0.000000	6.481251	6.481251
O	2.160417	4.320834	6.481251
O	2.160417	6.481251	4.320834
Hg	6.481251	2.160417	2.160417
K	4.320834	0.000000	0.000000
O	4.320834	2.160417	2.160417
O	6.481251	0.000000	2.160417
O	6.481251	2.160417	0.000000
Hg	6.481251	2.160417	6.481251
K	4.320834	0.000000	4.320834
O	4.320834	2.160417	6.481251
O	6.481251	0.000000	6.481251
O	6.481251	2.160417	4.320834
Hg	6.481251	6.481251	2.160417
K	4.320834	4.320834	0.000000
O	4.320834	6.481251	2.160417
O	6.481251	4.320834	2.160417
O	6.481251	6.481251	0.000000
Hg	6.481251	6.481251	6.481251
K	4.320834	4.320834	4.320834
O	4.320834	6.481251	6.481251
O	6.481251	4.320834	6.481251
O	6.481251	6.481251	4.320834
