40

F	0.000000	0.000000	0.000000
O	0.000000	1.929826	1.929826
O	1.929826	0.000000	1.929826
O	1.929826	1.929826	0.000000
W	1.929826	1.929826	1.929826
F	0.000000	0.000000	3.859652
O	0.000000	1.929826	5.789478
O	1.929826	0.000000	5.789478
O	1.929826	1.929826	3.859652
W	1.929826	1.929826	5.789478
F	0.000000	3.859652	0.000000
O	0.000000	5.789478	1.929826
O	1.929826	3.859652	1.929826
O	1.929826	5.789478	0.000000
W	1.929826	5.789478	1.929826
F	0.000000	3.859652	3.859652
O	0.000000	5.789478	5.789478
O	1.929826	3.859652	5.789478
O	1.929826	5.789478	3.859652
W	1.929826	5.789478	5.789478
F	3.859652	0.000000	0.000000
O	3.859652	1.929826	1.929826
O	5.789478	0.000000	1.929826
O	5.789478	1.929826	0.000000
W	5.789478	1.929826	1.929826
F	3.859652	0.000000	3.859652
O	3.859652	1.929826	5.789478
O	5.789478	0.000000	5.789478
O	5.789478	1.929826	3.859652
W	5.789478	1.929826	5.789478
F	3.859652	3.859652	0.000000
O	3.859652	5.789478	1.929826
O	5.789478	3.859652	1.929826
O	5.789478	5.789478	0.000000
W	5.789478	5.789478	1.929826
F	3.859652	3.859652	3.859652
O	3.859652	5.789478	5.789478
O	5.789478	3.859652	5.789478
O	5.789478	5.789478	3.859652
W	5.789478	5.789478	5.789478
