40

O	2.224793	2.224793	0.000000
O	2.224793	0.000000	2.224793
O	0.000000	2.224793	2.224793
Rb	0.000000	0.000000	0.000000
Tm	2.224793	2.224793	2.224793
O	2.224793	2.224793	4.449585
O	2.224793	0.000000	6.674378
O	0.000000	2.224793	6.674378
Rb	0.000000	0.000000	4.449585
Tm	2.224793	2.224793	6.674378
O	2.224793	6.674378	0.000000
O	2.224793	4.449585	2.224793
O	0.000000	6.674378	2.224793
Rb	0.000000	4.449585	0.000000
Tm	2.224793	6.674378	2.224793
O	2.224793	6.674378	4.449585
O	2.224793	4.449585	6.674378
O	0.000000	6.674378	6.674378
Rb	0.000000	4.449585	4.449585
Tm	2.224793	6.674378	6.674378
O	6.674378	2.224793	0.000000
O	6.674378	0.000000	2.224793
O	4.449585	2.224793	2.224793
Rb	4.449585	0.000000	0.000000
Tm	6.674378	2.224793	2.224793
O	6.674378	2.224793	4.449585
O	6.674378	0.000000	6.674378
O	4.449585	2.224793	6.674378
Rb	4.449585	0.000000	4.449585
Tm	6.674378	2.224793	6.674378
O	6.674378	6.674378	0.000000
O	6.674378	4.449585	2.224793
O	4.449585	6.674378	2.224793
Rb	4.449585	4.449585	0.000000
Tm	6.674378	6.674378	2.224793
O	6.674378	6.674378	4.449585
O	6.674378	4.449585	6.674378
O	4.449585	6.674378	6.674378
Rb	4.449585	4.449585	4.449585
Tm	6.674378	6.674378	6.674378
