40

Er	0.000000	0.000000	0.000000
Nd	2.239790	2.239790	2.239790
O	2.239790	2.239790	0.000000
O	2.239790	0.000000	2.239790
O	0.000000	2.239790	2.239790
Er	0.000000	0.000000	4.479580
Nd	2.239790	2.239790	6.719370
O	2.239790	2.239790	4.479580
O	2.239790	0.000000	6.719370
O	0.000000	2.239790	6.719370
Er	0.000000	4.479580	0.000000
Nd	2.239790	6.719370	2.239790
O	2.239790	6.719370	0.000000
O	2.239790	4.479580	2.239790
O	0.000000	6.719370	2.239790
Er	0.000000	4.479580	4.479580
Nd	2.239790	6.719370	6.719370
O	2.239790	6.719370	4.479580
O	2.239790	4.479580	6.719370
O	0.000000	6.719370	6.719370
Er	4.479580	0.000000	0.000000
Nd	6.719370	2.239790	2.239790
O	6.719370	2.239790	0.000000
O	6.719370	0.000000	2.239790
O	4.479580	2.239790	2.239790
Er	4.479580	0.000000	4.479580
Nd	6.719370	2.239790	6.719370
O	6.719370	2.239790	4.479580
O	6.719370	0.000000	6.719370
O	4.479580	2.239790	6.719370
Er	4.479580	4.479580	0.000000
Nd	6.719370	6.719370	2.239790
O	6.719370	6.719370	0.000000
O	6.719370	4.479580	2.239790
O	4.479580	6.719370	2.239790
Er	4.479580	4.479580	4.479580
Nd	6.719370	6.719370	6.719370
O	6.719370	6.719370	4.479580
O	6.719370	4.479580	6.719370
O	4.479580	6.719370	6.719370
