40

La	0.000000	0.000000	0.000000
Nb	2.033210	2.033210	2.033210
O	2.033210	0.000000	2.033210
O	0.000000	2.033210	2.033210
O	2.033210	2.033210	0.000000
La	0.000000	0.000000	4.066431
Nb	2.033210	2.033210	6.099641
O	2.033210	0.000000	6.099641
O	0.000000	2.033210	6.099641
O	2.033210	2.033210	4.066431
La	0.000000	4.066431	0.000000
Nb	2.033210	6.099641	2.033210
O	2.033210	4.066431	2.033210
O	0.000000	6.099641	2.033210
O	2.033210	6.099641	0.000000
La	0.000000	4.066431	4.066431
Nb	2.033210	6.099641	6.099641
O	2.033210	4.066431	6.099641
O	0.000000	6.099641	6.099641
O	2.033210	6.099641	4.066431
La	4.066431	0.000000	0.000000
Nb	6.099641	2.033210	2.033210
O	6.099641	0.000000	2.033210
O	4.066431	2.033210	2.033210
O	6.099641	2.033210	0.000000
La	4.066431	0.000000	4.066431
Nb	6.099641	2.033210	6.099641
O	6.099641	0.000000	6.099641
O	4.066431	2.033210	6.099641
O	6.099641	2.033210	4.066431
La	4.066431	4.066431	0.000000
Nb	6.099641	6.099641	2.033210
O	6.099641	4.066431	2.033210
O	4.066431	6.099641	2.033210
O	6.099641	6.099641	0.000000
La	4.066431	4.066431	4.066431
Nb	6.099641	6.099641	6.099641
O	6.099641	4.066431	6.099641
O	4.066431	6.099641	6.099641
O	6.099641	6.099641	4.066431
