40

Cd	2.053991	2.053991	2.053991
O	0.000000	2.053991	2.053991
O	2.053991	0.000000	2.053991
O	2.053991	2.053991	0.000000
P	0.000000	0.000000	0.000000
Cd	2.053991	2.053991	6.161973
O	0.000000	2.053991	6.161973
O	2.053991	0.000000	6.161973
O	2.053991	2.053991	4.107982
P	0.000000	0.000000	4.107982
Cd	2.053991	6.161973	2.053991
O	0.000000	6.161973	2.053991
O	2.053991	4.107982	2.053991
O	2.053991	6.161973	0.000000
P	0.000000	4.107982	0.000000
Cd	2.053991	6.161973	6.161973
O	0.000000	6.161973	6.161973
O	2.053991	4.107982	6.161973
O	2.053991	6.161973	4.107982
P	0.000000	4.107982	4.107982
Cd	6.161973	2.053991	2.053991
O	4.107982	2.053991	2.053991
O	6.161973	0.000000	2.053991
O	6.161973	2.053991	0.000000
P	4.107982	0.000000	0.000000
Cd	6.161973	2.053991	6.161973
O	4.107982	2.053991	6.161973
O	6.161973	0.000000	6.161973
O	6.161973	2.053991	4.107982
P	4.107982	0.000000	4.107982
Cd	6.161973	6.161973	2.053991
O	4.107982	6.161973	2.053991
O	6.161973	4.107982	2.053991
O	6.161973	6.161973	0.000000
P	4.107982	4.107982	0.000000
Cd	6.161973	6.161973	6.161973
O	4.107982	6.161973	6.161973
O	6.161973	4.107982	6.161973
O	6.161973	6.161973	4.107982
P	4.107982	4.107982	4.107982
