112

Bi	0.000000	0.000000	0.000000
Bi	2.251645	-2.250960	-2.250960
Ga	-1.125817	-1.125485	-3.376445
Ga	5.629106	-1.125485	-1.125485
Ga	1.125817	1.125485	-3.376445
Ga	3.377462	1.125485	-1.125485
O	-0.925693	0.925172	-3.576747
O	3.577596	-0.925172	-0.925172
O	0.925693	-0.925172	-3.576747
O	1.325951	1.325787	-1.325787
O	5.428972	0.925172	-0.925172
O	1.325951	3.176132	-3.176132
O	3.177328	3.176132	-1.325787
O	3.177328	1.325787	-3.176132
Bi	4.503286	4.501922	0.000000
Bi	6.754931	2.250962	-2.250960
Ga	3.377469	3.376437	-3.376445
Ga	10.132393	3.376437	-1.125485
Ga	5.629103	5.627407	-3.376445
Ga	7.880748	5.627407	-1.125485
O	3.577593	5.427094	-3.576747
O	8.080882	3.576749	-0.925172
O	5.428979	3.576749	-3.576747
O	5.829237	5.827709	-1.325787
O	9.932259	5.427094	-0.925172
O	5.829237	7.678054	-3.176132
O	7.680614	7.678054	-1.325787
O	7.680614	5.827709	-3.176132
Bi	-4.503286	0.000000	-4.501922
Bi	-2.251641	-2.250960	-6.752882
Ga	-5.629103	-1.125485	-7.878367
Ga	1.125820	-1.125485	-5.627407
Ga	-3.377469	1.125485	-7.878367
Ga	-1.125824	1.125485	-5.627407
O	-5.428979	0.925172	-8.078669
O	-0.925690	-0.925172	-5.427094
O	-3.577593	-0.925172	-8.078669
O	-3.177335	1.325787	-5.827709
O	0.925686	0.925172	-5.427094
O	-3.177335	3.176132	-7.678054
O	-1.325958	3.176132	-5.827709
O	-1.325958	1.325787	-7.678054
Bi	0.000000	4.501922	-4.501922
Bi	2.251645	2.250962	-6.752882
Ga	-1.125817	3.376437	-7.878367
Ga	5.629106	3.376437	-5.627407
Ga	1.125817	5.627407	-7.878367
Ga	3.377462	5.627407	-5.627407
O	-0.925693	5.427094	-8.078669
O	3.577596	3.576749	-5.427094
O	0.925693	3.576749	-8.078669
O	1.325951	5.827709	-5.827709
O	5.428972	5.427094	-5.427094
O	1.325951	7.678054	-7.678054
O	3.177328	7.678054	-5.827709
O	3.177328	5.827709	-7.678054
Bi	4.503286	-4.501922	0.000000
Bi	6.754931	-6.752882	-2.250960
Ga	3.377469	-5.627407	-3.376445
Ga	10.132393	-5.627407	-1.125485
Ga	5.629103	-3.376437	-3.376445
Ga	7.880748	-3.376437	-1.125485
O	3.577593	-3.576749	-3.576747
O	8.080882	-5.427094	-0.925172
O	5.428979	-5.427094	-3.576747
O	5.829237	-3.176135	-1.325787
O	9.932259	-3.576749	-0.925172
O	5.829237	-1.325790	-3.176132
O	7.680614	-1.325790	-1.325787
O	7.680614	-3.176135	-3.176132
Bi	9.006572	0.000000	0.000000
Bi	11.258217	-2.250960	-2.250960
Ga	7.880755	-1.125485	-3.376445
Ga	14.635679	-1.125485	-1.125485
Ga	10.132389	1.125485	-3.376445
Ga	12.384034	1.125485	-1.125485
O	8.080879	0.925172	-3.576747
O	12.584168	-0.925172	-0.925172
O	9.932265	-0.925172	-3.576747
O	10.332524	1.325787	-1.325787
O	14.435545	0.925172	-0.925172
O	10.332524	3.176132	-3.176132
O	12.183900	3.176132	-1.325787
O	12.183900	1.325787	-3.176132
Bi	0.000000	-4.501922	-4.501922
Bi	2.251645	-6.752882	-6.752882
Ga	-1.125817	-5.627407	-7.878367
Ga	5.629106	-5.627407	-5.627407
Ga	1.125817	-3.376437	-7.878367
Ga	3.377462	-3.376437	-5.627407
O	-0.925693	-3.576749	-8.078669
O	3.577596	-5.427094	-5.427094
O	0.925693	-5.427094	-8.078669
O	1.325951	-3.176135	-5.827709
O	5.428972	-3.576749	-5.427094
O	1.325951	-1.325790	-7.678054
O	3.177328	-1.325790	-5.827709
O	3.177328	-3.176135	-7.678054
Bi	4.503286	0.000000	-4.501922
Bi	6.754931	-2.250960	-6.752882
Ga	3.377469	-1.125485	-7.878367
Ga	10.132393	-1.125485	-5.627407
Ga	5.629103	1.125485	-7.878367
Ga	7.880748	1.125485	-5.627407
O	3.577593	0.925172	-8.078669
O	8.080882	-0.925172	-5.427094
O	5.428979	-0.925172	-8.078669
O	5.829237	1.325787	-5.827709
O	9.932259	0.925172	-5.427094
O	5.829237	3.176132	-7.678054
O	7.680614	3.176132	-5.827709
O	7.680614	1.325787	-7.678054
