40

Ho	0.000000	0.000000	0.000000
O	2.269110	2.269110	0.000000
O	0.000000	2.269110	2.269110
O	2.269110	0.000000	2.269110
Th	2.269110	2.269110	2.269110
Ho	0.000000	0.000000	4.538209
O	2.269110	2.269110	4.538209
O	0.000000	2.269110	6.807319
O	2.269110	0.000000	6.807319
Th	2.269110	2.269110	6.807319
Ho	0.000000	4.538209	0.000000
O	2.269110	6.807319	0.000000
O	0.000000	6.807319	2.269110
O	2.269110	4.538209	2.269110
Th	2.269110	6.807319	2.269110
Ho	0.000000	4.538209	4.538209
O	2.269110	6.807319	4.538209
O	0.000000	6.807319	6.807319
O	2.269110	4.538209	6.807319
Th	2.269110	6.807319	6.807319
Ho	4.538209	0.000000	0.000000
O	6.807319	2.269110	0.000000
O	4.538209	2.269110	2.269110
O	6.807319	0.000000	2.269110
Th	6.807319	2.269110	2.269110
Ho	4.538209	0.000000	4.538209
O	6.807319	2.269110	4.538209
O	4.538209	2.269110	6.807319
O	6.807319	0.000000	6.807319
Th	6.807319	2.269110	6.807319
Ho	4.538209	4.538209	0.000000
O	6.807319	6.807319	0.000000
O	4.538209	6.807319	2.269110
O	6.807319	4.538209	2.269110
Th	6.807319	6.807319	2.269110
Ho	4.538209	4.538209	4.538209
O	6.807319	6.807319	4.538209
O	4.538209	6.807319	6.807319
O	6.807319	4.538209	6.807319
Th	6.807319	6.807319	6.807319
