40

Nb	2.048380	2.048380	2.048380
O	2.048380	2.048380	0.000000
O	2.048380	0.000000	2.048380
O	0.000000	2.048380	2.048380
Th	0.000000	0.000000	0.000000
Nb	2.048380	2.048380	6.145139
O	2.048380	2.048380	4.096759
O	2.048380	0.000000	6.145139
O	0.000000	2.048380	6.145139
Th	0.000000	0.000000	4.096759
Nb	2.048380	6.145139	2.048380
O	2.048380	6.145139	0.000000
O	2.048380	4.096759	2.048380
O	0.000000	6.145139	2.048380
Th	0.000000	4.096759	0.000000
Nb	2.048380	6.145139	6.145139
O	2.048380	6.145139	4.096759
O	2.048380	4.096759	6.145139
O	0.000000	6.145139	6.145139
Th	0.000000	4.096759	4.096759
Nb	6.145139	2.048380	2.048380
O	6.145139	2.048380	0.000000
O	6.145139	0.000000	2.048380
O	4.096759	2.048380	2.048380
Th	4.096759	0.000000	0.000000
Nb	6.145139	2.048380	6.145139
O	6.145139	2.048380	4.096759
O	6.145139	0.000000	6.145139
O	4.096759	2.048380	6.145139
Th	4.096759	0.000000	4.096759
Nb	6.145139	6.145139	2.048380
O	6.145139	6.145139	0.000000
O	6.145139	4.096759	2.048380
O	4.096759	6.145139	2.048380
Th	4.096759	4.096759	0.000000
Nb	6.145139	6.145139	6.145139
O	6.145139	6.145139	4.096759
O	6.145139	4.096759	6.145139
O	4.096759	6.145139	6.145139
Th	4.096759	4.096759	4.096759
