40

Ca	0.000000	0.000000	0.000000
O	0.000000	2.271133	2.271133
O	2.271133	0.000000	2.271133
O	2.271133	2.271133	0.000000
Sr	2.271133	2.271133	2.271133
Ca	0.000000	0.000000	4.542266
O	0.000000	2.271133	6.813398
O	2.271133	0.000000	6.813398
O	2.271133	2.271133	4.542266
Sr	2.271133	2.271133	6.813398
Ca	0.000000	4.542266	0.000000
O	0.000000	6.813398	2.271133
O	2.271133	4.542266	2.271133
O	2.271133	6.813398	0.000000
Sr	2.271133	6.813398	2.271133
Ca	0.000000	4.542266	4.542266
O	0.000000	6.813398	6.813398
O	2.271133	4.542266	6.813398
O	2.271133	6.813398	4.542266
Sr	2.271133	6.813398	6.813398
Ca	4.542266	0.000000	0.000000
O	4.542266	2.271133	2.271133
O	6.813398	0.000000	2.271133
O	6.813398	2.271133	0.000000
Sr	6.813398	2.271133	2.271133
Ca	4.542266	0.000000	4.542266
O	4.542266	2.271133	6.813398
O	6.813398	0.000000	6.813398
O	6.813398	2.271133	4.542266
Sr	6.813398	2.271133	6.813398
Ca	4.542266	4.542266	0.000000
O	4.542266	6.813398	2.271133
O	6.813398	4.542266	2.271133
O	6.813398	6.813398	0.000000
Sr	6.813398	6.813398	2.271133
Ca	4.542266	4.542266	4.542266
O	4.542266	6.813398	6.813398
O	6.813398	4.542266	6.813398
O	6.813398	6.813398	4.542266
Sr	6.813398	6.813398	6.813398
