40

Br	0.000000	0.000000	0.000000
O	0.000000	2.213296	2.213296
O	2.213296	0.000000	2.213296
O	2.213296	2.213296	0.000000
Tl	2.213296	2.213296	2.213296
Br	0.000000	0.000000	4.426591
O	0.000000	2.213296	6.639887
O	2.213296	0.000000	6.639887
O	2.213296	2.213296	4.426591
Tl	2.213296	2.213296	6.639887
Br	0.000000	4.426591	0.000000
O	0.000000	6.639887	2.213296
O	2.213296	4.426591	2.213296
O	2.213296	6.639887	0.000000
Tl	2.213296	6.639887	2.213296
Br	0.000000	4.426591	4.426591
O	0.000000	6.639887	6.639887
O	2.213296	4.426591	6.639887
O	2.213296	6.639887	4.426591
Tl	2.213296	6.639887	6.639887
Br	4.426591	0.000000	0.000000
O	4.426591	2.213296	2.213296
O	6.639887	0.000000	2.213296
O	6.639887	2.213296	0.000000
Tl	6.639887	2.213296	2.213296
Br	4.426591	0.000000	4.426591
O	4.426591	2.213296	6.639887
O	6.639887	0.000000	6.639887
O	6.639887	2.213296	4.426591
Tl	6.639887	2.213296	6.639887
Br	4.426591	4.426591	0.000000
O	4.426591	6.639887	2.213296
O	6.639887	4.426591	2.213296
O	6.639887	6.639887	0.000000
Tl	6.639887	6.639887	2.213296
Br	4.426591	4.426591	4.426591
O	4.426591	6.639887	6.639887
O	6.639887	4.426591	6.639887
O	6.639887	6.639887	4.426591
Tl	6.639887	6.639887	6.639887
