40

K	0.000000	0.000000	0.000000
Li	1.941294	1.941294	1.941294
O	1.941294	1.941294	0.000000
O	1.941294	0.000000	1.941294
O	0.000000	1.941294	1.941294
K	0.000000	0.000000	3.882594
Li	1.941294	1.941294	5.823888
O	1.941294	1.941294	3.882594
O	1.941294	0.000000	5.823888
O	0.000000	1.941294	5.823888
K	0.000000	3.882594	0.000000
Li	1.941294	5.823888	1.941294
O	1.941294	5.823888	0.000000
O	1.941294	3.882594	1.941294
O	0.000000	5.823888	1.941294
K	0.000000	3.882594	3.882594
Li	1.941294	5.823888	5.823888
O	1.941294	5.823888	3.882594
O	1.941294	3.882594	5.823888
O	0.000000	5.823888	5.823888
K	3.882594	0.000000	0.000000
Li	5.823888	1.941294	1.941294
O	5.823888	1.941294	0.000000
O	5.823888	0.000000	1.941294
O	3.882594	1.941294	1.941294
K	3.882594	0.000000	3.882594
Li	5.823888	1.941294	5.823888
O	5.823888	1.941294	3.882594
O	5.823888	0.000000	5.823888
O	3.882594	1.941294	5.823888
K	3.882594	3.882594	0.000000
Li	5.823888	5.823888	1.941294
O	5.823888	5.823888	0.000000
O	5.823888	3.882594	1.941294
O	3.882594	5.823888	1.941294
K	3.882594	3.882594	3.882594
Li	5.823888	5.823888	5.823888
O	5.823888	5.823888	3.882594
O	5.823888	3.882594	5.823888
O	3.882594	5.823888	5.823888
