40

Na	0.000000	0.000000	0.000000
Nb	1.972348	1.972348	1.972348
O	1.972348	1.972348	0.000000
O	0.000000	1.972348	1.972348
O	1.972348	0.000000	1.972348
Na	0.000000	0.000000	3.944697
Nb	1.972348	1.972348	5.917045
O	1.972348	1.972348	3.944697
O	0.000000	1.972348	5.917045
O	1.972348	0.000000	5.917045
Na	0.000000	3.944697	0.000000
Nb	1.972348	5.917045	1.972348
O	1.972348	5.917045	0.000000
O	0.000000	5.917045	1.972348
O	1.972348	3.944697	1.972348
Na	0.000000	3.944697	3.944697
Nb	1.972348	5.917045	5.917045
O	1.972348	5.917045	3.944697
O	0.000000	5.917045	5.917045
O	1.972348	3.944697	5.917045
Na	3.944697	0.000000	0.000000
Nb	5.917045	1.972348	1.972348
O	5.917045	1.972348	0.000000
O	3.944697	1.972348	1.972348
O	5.917045	0.000000	1.972348
Na	3.944697	0.000000	3.944697
Nb	5.917045	1.972348	5.917045
O	5.917045	1.972348	3.944697
O	3.944697	1.972348	5.917045
O	5.917045	0.000000	5.917045
Na	3.944697	3.944697	0.000000
Nb	5.917045	5.917045	1.972348
O	5.917045	5.917045	0.000000
O	3.944697	5.917045	1.972348
O	5.917045	3.944697	1.972348
Na	3.944697	3.944697	3.944697
Nb	5.917045	5.917045	5.917045
O	5.917045	5.917045	3.944697
O	3.944697	5.917045	5.917045
O	5.917045	3.944697	5.917045
