40

Na	2.005659	2.005659	2.005659
Nb	0.000000	0.000000	0.000000
O	0.000000	0.000000	2.005659
O	0.000000	2.005659	0.000000
O	2.005659	0.000000	0.000000
Na	2.005659	2.005659	6.016978
Nb	0.000000	0.000000	4.011318
O	0.000000	0.000000	6.016978
O	0.000000	2.005659	4.011318
O	2.005659	0.000000	4.011318
Na	2.005659	6.016978	2.005659
Nb	0.000000	4.011318	0.000000
O	0.000000	4.011318	2.005659
O	0.000000	6.016978	0.000000
O	2.005659	4.011318	0.000000
Na	2.005659	6.016978	6.016978
Nb	0.000000	4.011318	4.011318
O	0.000000	4.011318	6.016978
O	0.000000	6.016978	4.011318
O	2.005659	4.011318	4.011318
Na	6.016978	2.005659	2.005659
Nb	4.011318	0.000000	0.000000
O	4.011318	0.000000	2.005659
O	4.011318	2.005659	0.000000
O	6.016978	0.000000	0.000000
Na	6.016978	2.005659	6.016978
Nb	4.011318	0.000000	4.011318
O	4.011318	0.000000	6.016978
O	4.011318	2.005659	4.011318
O	6.016978	0.000000	4.011318
Na	6.016978	6.016978	2.005659
Nb	4.011318	4.011318	0.000000
O	4.011318	4.011318	2.005659
O	4.011318	6.016978	0.000000
O	6.016978	4.011318	0.000000
Na	6.016978	6.016978	6.016978
Nb	4.011318	4.011318	4.011318
O	4.011318	4.011318	6.016978
O	4.011318	6.016978	4.011318
O	6.016978	4.011318	4.011318
