40

O	2.000027	2.000027	0.000000
O	2.000027	0.000000	2.000027
O	0.000000	2.000027	2.000027
Ru	0.000000	0.000000	0.000000
Ta	2.000027	2.000027	2.000027
O	2.000027	2.000027	4.000054
O	2.000027	0.000000	6.000080
O	0.000000	2.000027	6.000080
Ru	0.000000	0.000000	4.000054
Ta	2.000027	2.000027	6.000080
O	2.000027	6.000080	0.000000
O	2.000027	4.000054	2.000027
O	0.000000	6.000080	2.000027
Ru	0.000000	4.000054	0.000000
Ta	2.000027	6.000080	2.000027
O	2.000027	6.000080	4.000054
O	2.000027	4.000054	6.000080
O	0.000000	6.000080	6.000080
Ru	0.000000	4.000054	4.000054
Ta	2.000027	6.000080	6.000080
O	6.000080	2.000027	0.000000
O	6.000080	0.000000	2.000027
O	4.000054	2.000027	2.000027
Ru	4.000054	0.000000	0.000000
Ta	6.000080	2.000027	2.000027
O	6.000080	2.000027	4.000054
O	6.000080	0.000000	6.000080
O	4.000054	2.000027	6.000080
Ru	4.000054	0.000000	4.000054
Ta	6.000080	2.000027	6.000080
O	6.000080	6.000080	0.000000
O	6.000080	4.000054	2.000027
O	4.000054	6.000080	2.000027
Ru	4.000054	4.000054	0.000000
Ta	6.000080	6.000080	2.000027
O	6.000080	6.000080	4.000054
O	6.000080	4.000054	6.000080
O	4.000054	6.000080	6.000080
Ru	4.000054	4.000054	4.000054
Ta	6.000080	6.000080	6.000080
