320

O	-3.539294	1.295652	1.295652
O	-3.539294	-1.295652	-1.295652
O	-6.820423	1.295864	1.295864
O	-6.820423	-1.295864	-1.295864
O	-3.883688	1.640871	3.883688
O	-3.883688	-3.883688	-1.640871
O	-1.295652	1.295652	3.539294
O	-1.295652	-3.539294	-1.295652
O	-6.819821	-1.295652	1.295652
O	-3.538691	-1.295864	1.295864
O	-1.295864	-1.295864	3.538691
O	-1.295864	-3.538691	1.295864
O	1.295652	-1.295652	3.539294
O	1.295652	-3.539294	1.295652
O	-3.883911	-1.640269	3.883911
O	-3.883911	-3.883911	1.640269
O	-1.295864	1.295864	6.820423
O	-1.295864	-6.820423	-1.295864
O	1.640871	-3.883688	3.883688
O	-1.640269	-3.883911	3.883911
O	-1.295652	-1.295652	6.819821
O	-1.295652	-6.819821	1.295652
O	1.295864	-1.295864	6.820423
O	1.295864	-6.820423	1.295864
Sb	-2.589652	2.589652	2.589652
Sb	-2.588910	0.000000	0.000000
Sb	-2.589652	-2.589652	-2.589652
Sb	-7.770204	-0.000000	-0.000000
Sb	-0.000000	0.000000	2.588910
Sb	-0.000000	-2.588910	-0.000000
Sb	-2.589900	-2.589900	2.589900
Sb	2.589652	-2.589652	2.589652
Sb	0.000000	-0.000000	7.770204
Sb	0.000000	-7.770204	0.000000
Yb	-5.179562	0.000000	2.589781
Yb	-5.179562	-2.589781	-0.000000
Yb	-2.589781	-0.000000	5.179562
Yb	-2.589781	-5.179562	0.000000
Yb	-0.000000	-2.589781	5.179562
Yb	-0.000000	-5.179562	2.589781
O	1.640264	-3.883906	6.475209
O	1.640264	-6.475209	3.883906
O	-1.640866	-3.883694	6.475421
O	-1.640866	-6.475421	3.883694
O	1.295869	-3.538686	9.063246
O	1.295869	-9.063246	3.538686
O	3.883906	-3.883906	8.718851
O	3.883906	-8.718851	3.883906
O	-1.640263	-6.475209	6.475209
O	1.640867	-6.475421	6.475421
O	3.883694	-6.475421	8.718248
O	3.883694	-8.718248	6.475421
O	6.475209	-6.475209	8.718851
O	6.475209	-8.718851	6.475209
O	1.295647	-6.819826	9.063468
O	1.295647	-9.063468	6.819826
O	3.883694	-3.883694	11.999981
O	3.883694	-11.999981	3.883694
O	6.820429	-9.063246	9.063246
O	3.539289	-9.063468	9.063468
O	3.883906	-6.475209	11.999378
O	3.883906	-11.999378	6.475209
O	6.475421	-6.475421	11.999981
O	6.475421	-11.999981	6.475421
Sb	2.589906	-2.589906	7.769210
Sb	2.590648	-5.179558	5.179558
Sb	2.589906	-7.769210	2.589906
Sb	-2.590647	-5.179558	5.179558
Sb	5.179558	-5.179558	7.768468
Sb	5.179558	-7.768468	5.179558
Sb	2.589657	-7.769458	7.769458
Sb	7.769210	-7.769210	7.769210
Sb	5.179558	-5.179558	12.949762
Sb	5.179558	-12.949762	5.179558
Yb	-0.000005	-5.179558	7.769339
Yb	-0.000005	-7.769339	5.179558
Yb	2.589777	-5.179558	10.359120
Yb	2.589777	-10.359120	5.179558
Yb	5.179558	-7.769339	10.359120
Yb	5.179558	-10.359120	7.769339
O	-8.718851	-3.883906	-3.883906
O	-8.718851	-6.475209	-6.475209
O	-11.999981	-3.883694	-3.883694
O	-11.999981	-6.475421	-6.475421
O	-9.063246	-3.538686	-1.295869
O	-9.063246	-9.063246	-6.820429
O	-6.475209	-3.883906	-1.640264
O	-6.475209	-8.718851	-6.475209
O	-11.999378	-6.475209	-3.883906
O	-8.718248	-6.475421	-3.883694
O	-6.475421	-6.475421	-1.640867
O	-6.475421	-8.718248	-3.883694
O	-3.883906	-6.475209	-1.640264
O	-3.883906	-8.718851	-3.883906
O	-9.063468	-6.819826	-1.295647
O	-9.063468	-9.063468	-3.539289
O	-6.475421	-3.883694	1.640866
O	-6.475421	-11.999981	-6.475421
O	-3.538686	-9.063246	-1.295869
O	-6.819826	-9.063468	-1.295647
O	-6.475209	-6.475209	1.640263
O	-6.475209	-11.999378	-3.883906
O	-3.883694	-6.475421	1.640866
O	-3.883694	-11.999981	-3.883694
Sb	-7.769210	-2.589906	-2.589906
Sb	-7.768468	-5.179558	-5.179558
Sb	-7.769210	-7.769210	-7.769210
Sb	-12.949762	-5.179558	-5.179558
Sb	-5.179558	-5.179558	-2.590648
Sb	-5.179558	-7.768468	-5.179558
Sb	-7.769458	-7.769458	-2.589657
Sb	-2.589906	-7.769210	-2.589906
Sb	-5.179558	-5.179558	2.590647
Sb	-5.179558	-12.949762	-5.179558
Yb	-10.359120	-5.179558	-2.589777
Yb	-10.359120	-7.769339	-5.179558
Yb	-7.769339	-5.179558	0.000005
Yb	-7.769339	-10.359120	-5.179558
Yb	-5.179558	-7.769339	0.000005
Yb	-5.179558	-10.359120	-2.589777
O	-3.539294	-9.063464	1.295652
O	-3.539294	-11.654767	-1.295652
O	-6.820423	-9.063251	1.295864
O	-6.820423	-11.654979	-1.295864
O	-3.883688	-8.718244	3.883688
O	-3.883688	-14.242804	-1.640871
O	-1.295652	-9.063464	3.539294
O	-1.295652	-13.898409	-1.295652
O	-6.819821	-11.654767	1.295652
O	-3.538691	-11.654979	1.295864
O	-1.295864	-11.654979	3.538691
O	-1.295864	-13.897806	1.295864
O	1.295652	-11.654767	3.539294
O	1.295652	-13.898409	1.295652
O	-3.883911	-11.999384	3.883911
O	-3.883911	-14.243026	1.640269
O	-1.295864	-9.063251	6.820423
O	-1.295864	-17.179539	-1.295864
O	1.640871	-14.242804	3.883688
O	-1.640269	-14.243026	3.883911
O	-1.295652	-11.654767	6.819821
O	-1.295652	-17.178936	1.295652
O	1.295864	-11.654979	6.820423
O	1.295864	-17.179539	1.295864
Sb	-2.589652	-7.769463	2.589652
Sb	-2.588910	-10.359115	0.000000
Sb	-2.589652	-12.948767	-2.589652
Sb	-7.770204	-10.359115	0.000000
Sb	0.000000	-10.359115	2.588910
Sb	0.000000	-12.948025	0.000000
Sb	-2.589900	-12.949015	2.589900
Sb	2.589652	-12.948767	2.589652
Sb	0.000000	-10.359115	7.770204
Sb	0.000000	-18.129319	0.000000
Yb	-5.179562	-10.359115	2.589781
Yb	-5.179562	-12.948896	0.000000
Yb	-2.589781	-10.359115	5.179562
Yb	-2.589781	-15.538677	0.000000
Yb	0.000000	-12.948896	5.179562
Yb	0.000000	-15.538677	2.589781
O	-8.718851	6.475209	6.475209
O	-8.718851	3.883906	3.883906
O	-11.999981	6.475421	6.475421
O	-11.999981	3.883694	3.883694
O	-9.063246	6.820429	9.063246
O	-9.063246	1.295869	3.538686
O	-6.475209	6.475209	8.718851
O	-6.475209	1.640264	3.883906
O	-11.999378	3.883906	6.475209
O	-8.718248	3.883694	6.475421
O	-6.475421	3.883694	8.718248
O	-6.475421	1.640867	6.475421
O	-3.883906	3.883906	8.718851
O	-3.883906	1.640264	6.475209
O	-9.063468	3.539289	9.063468
O	-9.063468	1.295647	6.819826
O	-6.475421	6.475421	11.999981
O	-6.475421	-1.640866	3.883694
O	-3.538686	1.295869	9.063246
O	-6.819826	1.295647	9.063468
O	-6.475209	3.883906	11.999378
O	-6.475209	-1.640263	6.475209
O	-3.883694	3.883694	11.999981
O	-3.883694	-1.640866	6.475421
Sb	-7.769210	7.769210	7.769210
Sb	-7.768468	5.179558	5.179558
Sb	-7.769210	2.589906	2.589906
Sb	-12.949762	5.179558	5.179558
Sb	-5.179558	5.179558	7.768468
Sb	-5.179558	2.590648	5.179558
Sb	-7.769458	2.589657	7.769458
Sb	-2.589906	2.589906	7.769210
Sb	-5.179558	5.179558	12.949762
Sb	-5.179558	-2.590647	5.179558
Yb	-10.359120	5.179558	7.769339
Yb	-10.359120	2.589777	5.179558
Yb	-7.769339	5.179558	10.359120
Yb	-7.769339	-0.000005	5.179558
Yb	-5.179558	2.589777	10.359120
Yb	-5.179558	-0.000005	7.769339
O	-3.539294	1.295652	11.654767
O	-3.539294	-1.295652	9.063464
O	-6.820423	1.295864	11.654979
O	-6.820423	-1.295864	9.063251
O	-3.883688	1.640871	14.242804
O	-3.883688	-3.883688	8.718244
O	-1.295652	1.295652	13.898409
O	-1.295652	-3.539294	9.063464
O	-6.819821	-1.295652	11.654767
O	-3.538691	-1.295864	11.654979
O	-1.295864	-1.295864	13.897806
O	-1.295864	-3.538691	11.654979
O	1.295652	-1.295652	13.898409
O	1.295652	-3.539294	11.654767
O	-3.883911	-1.640269	14.243026
O	-3.883911	-3.883911	11.999384
O	-1.295864	1.295864	17.179539
O	-1.295864	-6.820423	9.063251
O	1.640871	-3.883688	14.242804
O	-1.640269	-3.883911	14.243026
O	-1.295652	-1.295652	17.178936
O	-1.295652	-6.819821	11.654767
O	1.295864	-1.295864	17.179539
O	1.295864	-6.820423	11.654979
Sb	-2.589652	2.589652	12.948767
Sb	-2.588910	0.000000	10.359115
Sb	-2.589652	-2.589652	7.769463
Sb	-7.770204	0.000000	10.359115
Sb	0.000000	0.000000	12.948025
Sb	0.000000	-2.588910	10.359115
Sb	-2.589900	-2.589900	12.949015
Sb	2.589652	-2.589652	12.948767
Sb	0.000000	0.000000	18.129319
Sb	0.000000	-7.770204	10.359115
Yb	-5.179562	0.000000	12.948896
Yb	-5.179562	-2.589781	10.359115
Yb	-2.589781	0.000000	15.538677
Yb	-2.589781	-5.179562	10.359115
Yb	0.000000	-2.589781	15.538677
Yb	0.000000	-5.179562	12.948896
O	-13.898409	1.295652	1.295652
O	-13.898409	-1.295652	-1.295652
O	-17.179539	1.295864	1.295864
O	-17.179539	-1.295864	-1.295864
O	-14.242804	1.640871	3.883688
O	-14.242804	-3.883688	-1.640871
O	-11.654767	1.295652	3.539294
O	-11.654767	-3.539294	-1.295652
O	-17.178936	-1.295652	1.295652
O	-13.897806	-1.295864	1.295864
O	-11.654979	-1.295864	3.538691
O	-11.654979	-3.538691	1.295864
O	-9.063464	-1.295652	3.539294
O	-9.063464	-3.539294	1.295652
O	-14.243026	-1.640269	3.883911
O	-14.243026	-3.883911	1.640269
O	-11.654979	1.295864	6.820423
O	-11.654979	-6.820423	-1.295864
O	-8.718244	-3.883688	3.883688
O	-11.999384	-3.883911	3.883911
O	-11.654767	-1.295652	6.819821
O	-11.654767	-6.819821	1.295652
O	-9.063251	-1.295864	6.820423
O	-9.063251	-6.820423	1.295864
Sb	-12.948767	2.589652	2.589652
Sb	-12.948025	0.000000	0.000000
Sb	-12.948767	-2.589652	-2.589652
Sb	-18.129319	0.000000	0.000000
Sb	-10.359115	0.000000	2.588910
Sb	-10.359115	-2.588910	0.000000
Sb	-12.949015	-2.589900	2.589900
Sb	-7.769463	-2.589652	2.589652
Sb	-10.359115	0.000000	7.770204
Sb	-10.359115	-7.770204	0.000000
Yb	-15.538677	0.000000	2.589781
Yb	-15.538677	-2.589781	0.000000
Yb	-12.948896	0.000000	5.179562
Yb	-12.948896	-5.179562	0.000000
Yb	-10.359115	-2.589781	5.179562
Yb	-10.359115	-5.179562	2.589781
O	-8.718851	-3.883906	6.475209
O	-8.718851	-6.475209	3.883906
O	-11.999981	-3.883694	6.475421
O	-11.999981	-6.475421	3.883694
O	-9.063246	-3.538686	9.063246
O	-9.063246	-9.063246	3.538686
O	-6.475209	-3.883906	8.718851
O	-6.475209	-8.718851	3.883906
O	-11.999378	-6.475209	6.475209
O	-8.718248	-6.475421	6.475421
O	-6.475421	-6.475421	8.718248
O	-6.475421	-8.718248	6.475421
O	-3.883906	-6.475209	8.718851
O	-3.883906	-8.718851	6.475209
O	-9.063468	-6.819826	9.063468
O	-9.063468	-9.063468	6.819826
O	-6.475421	-3.883694	11.999981
O	-6.475421	-11.999981	3.883694
O	-3.538686	-9.063246	9.063246
O	-6.819826	-9.063468	9.063468
O	-6.475209	-6.475209	11.999378
O	-6.475209	-11.999378	6.475209
O	-3.883694	-6.475421	11.999981
O	-3.883694	-11.999981	6.475421
Sb	-7.769210	-2.589906	7.769210
Sb	-7.768468	-5.179558	5.179558
Sb	-7.769210	-7.769210	2.589906
Sb	-12.949762	-5.179558	5.179558
Sb	-5.179558	-5.179558	7.768468
Sb	-5.179558	-7.768468	5.179558
Sb	-7.769458	-7.769458	7.769458
Sb	-2.589906	-7.769210	7.769210
Sb	-5.179558	-5.179558	12.949762
Sb	-5.179558	-12.949762	5.179558
Yb	-10.359120	-5.179558	7.769339
Yb	-10.359120	-7.769339	5.179558
Yb	-7.769339	-5.179558	10.359120
Yb	-7.769339	-10.359120	5.179558
Yb	-5.179558	-7.769339	10.359120
Yb	-5.179558	-10.359120	7.769339
