112

Co	0.000000	0.000000	0.000000
Co	2.379455	-2.368783	-2.368783
O	3.547463	-1.226903	-1.226903
O	-1.211446	1.226903	-3.510663
O	1.211446	-1.226903	-3.510663
O	1.168009	1.141880	-1.141880
O	5.970355	1.226903	-1.226903
O	1.168009	3.595686	-3.595686
O	3.590901	3.595686	-1.141880
O	3.590901	1.141880	-3.595686
Pa	-1.189727	-1.184391	-3.553174
Pa	3.569182	1.184391	-1.184391
Pa	5.948637	-1.184391	-1.184391
Pa	1.189727	1.184391	-3.553174
Co	4.758909	4.737566	0.000000
Co	7.138364	2.368783	-2.368783
O	8.306373	3.510663	-1.226903
O	3.547463	5.964469	-3.510663
O	5.970355	3.510663	-3.510663
O	5.926918	5.879446	-1.141880
O	10.729265	5.964469	-1.226903
O	5.926918	8.333252	-3.595686
O	8.349810	8.333252	-1.141880
O	8.349810	5.879446	-3.595686
Pa	3.569182	3.553174	-3.553174
Pa	8.328091	5.921957	-1.184391
Pa	10.707546	3.553174	-1.184391
Pa	5.948637	5.921957	-3.553174
Co	-4.758909	0.000000	-4.737566
Co	-2.379455	-2.368783	-7.106349
O	-1.211446	-1.226903	-5.964469
O	-5.970355	1.226903	-8.248229
O	-3.547463	-1.226903	-8.248229
O	-3.590901	1.141880	-5.879446
O	1.211446	1.226903	-5.964469
O	-3.590901	3.595686	-8.333252
O	-1.168009	3.595686	-5.879446
O	-1.168009	1.141880	-8.333252
Pa	-5.948637	-1.184391	-8.290740
Pa	-1.189727	1.184391	-5.921957
Pa	1.189727	-1.184391	-5.921957
Pa	-3.569182	1.184391	-8.290740
Co	0.000000	4.737566	-4.737566
Co	2.379455	2.368783	-7.106349
O	3.547463	3.510663	-5.964469
O	-1.211446	5.964469	-8.248229
O	1.211446	3.510663	-8.248229
O	1.168009	5.879446	-5.879446
O	5.970355	5.964469	-5.964469
O	1.168009	8.333252	-8.333252
O	3.590901	8.333252	-5.879446
O	3.590901	5.879446	-8.333252
Pa	-1.189727	3.553174	-8.290740
Pa	3.569182	5.921957	-5.921957
Pa	5.948637	3.553174	-5.921957
Pa	1.189727	5.921957	-8.290740
Co	4.758909	-4.737566	0.000000
Co	7.138364	-7.106349	-2.368783
O	8.306373	-5.964469	-1.226903
O	3.547463	-3.510663	-3.510663
O	5.970355	-5.964469	-3.510663
O	5.926918	-3.595686	-1.141880
O	10.729265	-3.510663	-1.226903
O	5.926918	-1.141880	-3.595686
O	8.349810	-1.141880	-1.141880
O	8.349810	-3.595686	-3.595686
Pa	3.569182	-5.921957	-3.553174
Pa	8.328091	-3.553174	-1.184391
Pa	10.707546	-5.921957	-1.184391
Pa	5.948637	-3.553174	-3.553174
Co	9.517819	0.000000	0.000000
Co	11.897273	-2.368783	-2.368783
O	13.065282	-1.226903	-1.226903
O	8.306373	1.226903	-3.510663
O	10.729265	-1.226903	-3.510663
O	10.685827	1.141880	-1.141880
O	15.488174	1.226903	-1.226903
O	10.685827	3.595686	-3.595686
O	13.108719	3.595686	-1.141880
O	13.108719	1.141880	-3.595686
Pa	8.328091	-1.184391	-3.553174
Pa	13.087001	1.184391	-1.184391
Pa	15.466455	-1.184391	-1.184391
Pa	10.707546	1.184391	-3.553174
Co	0.000000	-4.737566	-4.737566
Co	2.379455	-7.106349	-7.106349
O	3.547463	-5.964469	-5.964469
O	-1.211446	-3.510663	-8.248229
O	1.211446	-5.964469	-8.248229
O	1.168009	-3.595686	-5.879446
O	5.970355	-3.510663	-5.964469
O	1.168009	-1.141880	-8.333252
O	3.590901	-1.141880	-5.879446
O	3.590901	-3.595686	-8.333252
Pa	-1.189727	-5.921957	-8.290740
Pa	3.569182	-3.553174	-5.921957
Pa	5.948637	-5.921957	-5.921957
Pa	1.189727	-3.553174	-8.290740
Co	4.758909	0.000000	-4.737566
Co	7.138364	-2.368783	-7.106349
O	8.306373	-1.226903	-5.964469
O	3.547463	1.226903	-8.248229
O	5.970355	-1.226903	-8.248229
O	5.926918	1.141880	-5.879446
O	10.729265	1.226903	-5.964469
O	5.926918	3.595686	-8.333252
O	8.349810	3.595686	-5.879446
O	8.349810	1.141880	-8.333252
Pa	3.569182	-1.184391	-8.290740
Pa	8.328091	1.184391	-5.921957
Pa	10.707546	-1.184391	-5.921957
Pa	5.948637	1.184391	-8.290740
