40

Nb	0.000000	0.000000	0.000000
O	0.000000	2.015965	2.015965
O	2.015965	0.000000	2.015965
O	2.015965	2.015965	0.000000
Sc	2.015965	2.015965	2.015965
Nb	0.000000	0.000000	4.031929
O	0.000000	2.015965	6.047894
O	2.015965	0.000000	6.047894
O	2.015965	2.015965	4.031929
Sc	2.015965	2.015965	6.047894
Nb	0.000000	4.031929	0.000000
O	0.000000	6.047894	2.015965
O	2.015965	4.031929	2.015965
O	2.015965	6.047894	0.000000
Sc	2.015965	6.047894	2.015965
Nb	0.000000	4.031929	4.031929
O	0.000000	6.047894	6.047894
O	2.015965	4.031929	6.047894
O	2.015965	6.047894	4.031929
Sc	2.015965	6.047894	6.047894
Nb	4.031929	0.000000	0.000000
O	4.031929	2.015965	2.015965
O	6.047894	0.000000	2.015965
O	6.047894	2.015965	0.000000
Sc	6.047894	2.015965	2.015965
Nb	4.031929	0.000000	4.031929
O	4.031929	2.015965	6.047894
O	6.047894	0.000000	6.047894
O	6.047894	2.015965	4.031929
Sc	6.047894	2.015965	6.047894
Nb	4.031929	4.031929	0.000000
O	4.031929	6.047894	2.015965
O	6.047894	4.031929	2.015965
O	6.047894	6.047894	0.000000
Sc	6.047894	6.047894	2.015965
Nb	4.031929	4.031929	4.031929
O	4.031929	6.047894	6.047894
O	6.047894	4.031929	6.047894
O	6.047894	6.047894	4.031929
Sc	6.047894	6.047894	6.047894
