40

B	0.000000	0.000000	0.000000
Na	2.008560	2.008560	2.008560
O	2.008560	2.008560	0.000000
O	2.008560	0.000000	2.008560
O	0.000000	2.008560	2.008560
B	0.000000	0.000000	4.017114
Na	2.008560	2.008560	6.025675
O	2.008560	2.008560	4.017114
O	2.008560	0.000000	6.025675
O	0.000000	2.008560	6.025675
B	0.000000	4.017114	0.000000
Na	2.008560	6.025675	2.008560
O	2.008560	6.025675	0.000000
O	2.008560	4.017114	2.008560
O	0.000000	6.025675	2.008560
B	0.000000	4.017114	4.017114
Na	2.008560	6.025675	6.025675
O	2.008560	6.025675	4.017114
O	2.008560	4.017114	6.025675
O	0.000000	6.025675	6.025675
B	4.017114	0.000000	0.000000
Na	6.025675	2.008560	2.008560
O	6.025675	2.008560	0.000000
O	6.025675	0.000000	2.008560
O	4.017114	2.008560	2.008560
B	4.017114	0.000000	4.017114
Na	6.025675	2.008560	6.025675
O	6.025675	2.008560	4.017114
O	6.025675	0.000000	6.025675
O	4.017114	2.008560	6.025675
B	4.017114	4.017114	0.000000
Na	6.025675	6.025675	2.008560
O	6.025675	6.025675	0.000000
O	6.025675	4.017114	2.008560
O	4.017114	6.025675	2.008560
B	4.017114	4.017114	4.017114
Na	6.025675	6.025675	6.025675
O	6.025675	6.025675	4.017114
O	6.025675	4.017114	6.025675
O	4.017114	6.025675	6.025675
