112

Au	0.000000	0.000000	0.000000
Au	2.353303	-2.353890	-2.353890
O	3.723652	-0.982760	-0.982760
O	-0.982964	0.982760	-3.725030
O	0.982964	-0.982760	-3.725030
O	1.370349	1.371130	-1.371130
O	5.689581	0.982760	-0.982760
O	1.370349	3.336650	-3.336650
O	3.336268	3.336650	-1.371130
O	3.336268	1.371130	-3.336650
Sn	-1.176657	-1.176945	-3.530835
Sn	3.529960	1.176945	-1.176945
Sn	1.176657	1.176945	-3.530835
Sn	5.883273	-1.176945	-1.176945
Au	4.706615	4.707785	0.000000
Au	7.059918	2.353895	-2.353890
O	8.430267	3.725025	-0.982760
O	3.723650	5.690544	-3.725030
O	5.689579	3.725025	-3.725030
O	6.076964	6.078915	-1.371130
O	10.396196	5.690544	-0.982760
O	6.076964	8.044434	-3.336650
O	8.042883	8.044434	-1.371130
O	8.042882	6.078915	-3.336650
Sn	3.529958	3.530840	-3.530835
Sn	8.236575	5.884730	-1.176945
Sn	5.883271	5.884729	-3.530835
Sn	10.589888	3.530840	-1.176945
Au	-4.706615	0.000000	-4.707785
Au	-2.353311	-2.353890	-7.061674
O	-0.982962	-0.982760	-5.690544
O	-5.689579	0.982760	-8.432815
O	-3.723650	-0.982760	-8.432815
O	-3.336266	1.371130	-6.078915
O	0.982966	0.982760	-5.690544
O	-3.336266	3.336650	-8.044434
O	-1.370347	3.336650	-6.078915
O	-1.370347	1.371130	-8.044434
Sn	-5.883271	-1.176945	-8.238619
Sn	-1.176655	1.176945	-5.884729
Sn	-3.529958	1.176945	-8.238619
Sn	1.176659	-1.176945	-5.884729
Au	0.000000	4.707785	-4.707785
Au	2.353303	2.353895	-7.061674
O	3.723652	3.725025	-5.690544
O	-0.982964	5.690544	-8.432815
O	0.982964	3.725025	-8.432815
O	1.370349	6.078915	-6.078915
O	5.689581	5.690544	-5.690544
O	1.370349	8.044434	-8.044434
O	3.336268	8.044434	-6.078915
O	3.336268	6.078915	-8.044434
Sn	-1.176657	3.530840	-8.238619
Sn	3.529960	5.884730	-5.884729
Sn	1.176657	5.884729	-8.238619
Sn	5.883273	3.530840	-5.884729
Au	4.706615	-4.707785	0.000000
Au	7.059918	-7.061674	-2.353890
O	8.430267	-5.690544	-0.982760
O	3.723650	-3.725025	-3.725030
O	5.689579	-5.690544	-3.725030
O	6.076964	-3.336654	-1.371130
O	10.396196	-3.725025	-0.982760
O	6.076964	-1.371135	-3.336650
O	8.042883	-1.371135	-1.371130
O	8.042882	-3.336654	-3.336650
Sn	3.529958	-5.884729	-3.530835
Sn	8.236575	-3.530840	-1.176945
Sn	5.883271	-3.530840	-3.530835
Sn	10.589888	-5.884729	-1.176945
Au	9.413229	0.000000	0.000000
Au	11.766533	-2.353890	-2.353890
O	13.136882	-0.982760	-0.982760
O	8.430265	0.982760	-3.725030
O	10.396194	-0.982760	-3.725030
O	10.783578	1.371130	-1.371130
O	15.102811	0.982760	-0.982760
O	10.783578	3.336650	-3.336650
O	12.749497	3.336650	-1.371130
O	12.749497	1.371130	-3.336650
Sn	8.236573	-1.176945	-3.530835
Sn	12.943190	1.176945	-1.176945
Sn	10.589886	1.176945	-3.530835
Sn	15.296503	-1.176945	-1.176945
Au	0.000000	-4.707785	-4.707785
Au	2.353303	-7.061674	-7.061674
O	3.723652	-5.690544	-5.690544
O	-0.982964	-3.725025	-8.432815
O	0.982964	-5.690544	-8.432815
O	1.370349	-3.336654	-6.078915
O	5.689581	-3.725025	-5.690544
O	1.370349	-1.371135	-8.044434
O	3.336268	-1.371135	-6.078915
O	3.336268	-3.336654	-8.044434
Sn	-1.176657	-5.884729	-8.238619
Sn	3.529960	-3.530840	-5.884729
Sn	1.176657	-3.530840	-8.238619
Sn	5.883273	-5.884729	-5.884729
Au	4.706615	0.000000	-4.707785
Au	7.059918	-2.353890	-7.061674
O	8.430267	-0.982760	-5.690544
O	3.723650	0.982760	-8.432815
O	5.689579	-0.982760	-8.432815
O	6.076964	1.371130	-6.078915
O	10.396196	0.982760	-5.690544
O	6.076964	3.336650	-8.044434
O	8.042883	3.336650	-6.078915
O	8.042882	1.371130	-8.044434
Sn	3.529958	-1.176945	-8.238619
Sn	8.236575	1.176945	-5.884729
Sn	5.883271	1.176945	-8.238619
Sn	10.589888	-1.176945	-5.884729
