40

O	0.000000	2.177264	2.177264
O	2.177264	0.000000	2.177264
O	2.177264	2.177264	0.000000
Rh	0.000000	0.000000	0.000000
Y	2.177264	2.177264	2.177264
O	0.000000	2.177264	6.531791
O	2.177264	0.000000	6.531791
O	2.177264	2.177264	4.354527
Rh	0.000000	0.000000	4.354527
Y	2.177264	2.177264	6.531791
O	0.000000	6.531791	2.177264
O	2.177264	4.354527	2.177264
O	2.177264	6.531791	0.000000
Rh	0.000000	4.354527	0.000000
Y	2.177264	6.531791	2.177264
O	0.000000	6.531791	6.531791
O	2.177264	4.354527	6.531791
O	2.177264	6.531791	4.354527
Rh	0.000000	4.354527	4.354527
Y	2.177264	6.531791	6.531791
O	4.354527	2.177264	2.177264
O	6.531791	0.000000	2.177264
O	6.531791	2.177264	0.000000
Rh	4.354527	0.000000	0.000000
Y	6.531791	2.177264	2.177264
O	4.354527	2.177264	6.531791
O	6.531791	0.000000	6.531791
O	6.531791	2.177264	4.354527
Rh	4.354527	0.000000	4.354527
Y	6.531791	2.177264	6.531791
O	4.354527	6.531791	2.177264
O	6.531791	4.354527	2.177264
O	6.531791	6.531791	0.000000
Rh	4.354527	4.354527	0.000000
Y	6.531791	6.531791	2.177264
O	4.354527	6.531791	6.531791
O	6.531791	4.354527	6.531791
O	6.531791	6.531791	4.354527
Rh	4.354527	4.354527	4.354527
Y	6.531791	6.531791	6.531791
