40

O	0.000000	1.972588	1.972588
O	1.972588	0.000000	1.972588
O	1.972588	1.972588	0.000000
Rh	1.972588	1.972588	1.972588
Y	0.000000	0.000000	0.000000
O	0.000000	1.972588	5.917765
O	1.972588	0.000000	5.917765
O	1.972588	1.972588	3.945177
Rh	1.972588	1.972588	5.917765
Y	0.000000	0.000000	3.945177
O	0.000000	5.917765	1.972588
O	1.972588	3.945177	1.972588
O	1.972588	5.917765	0.000000
Rh	1.972588	5.917765	1.972588
Y	0.000000	3.945177	0.000000
O	0.000000	5.917765	5.917765
O	1.972588	3.945177	5.917765
O	1.972588	5.917765	3.945177
Rh	1.972588	5.917765	5.917765
Y	0.000000	3.945177	3.945177
O	3.945177	1.972588	1.972588
O	5.917765	0.000000	1.972588
O	5.917765	1.972588	0.000000
Rh	5.917765	1.972588	1.972588
Y	3.945177	0.000000	0.000000
O	3.945177	1.972588	5.917765
O	5.917765	0.000000	5.917765
O	5.917765	1.972588	3.945177
Rh	5.917765	1.972588	5.917765
Y	3.945177	0.000000	3.945177
O	3.945177	5.917765	1.972588
O	5.917765	3.945177	1.972588
O	5.917765	5.917765	0.000000
Rh	5.917765	5.917765	1.972588
Y	3.945177	3.945177	0.000000
O	3.945177	5.917765	5.917765
O	5.917765	3.945177	5.917765
O	5.917765	5.917765	3.945177
Rh	5.917765	5.917765	5.917765
Y	3.945177	3.945177	3.945177
