40

B	1.674166	1.674166	1.674166
Mg	0.000000	0.000000	0.000000
O	1.674166	1.674166	0.000000
O	1.674166	0.000000	1.674166
O	0.000000	1.674166	1.674166
B	1.674166	1.674166	5.022498
Mg	0.000000	0.000000	3.348332
O	1.674166	1.674166	3.348332
O	1.674166	0.000000	5.022498
O	0.000000	1.674166	5.022498
B	1.674166	5.022498	1.674166
Mg	0.000000	3.348332	0.000000
O	1.674166	5.022498	0.000000
O	1.674166	3.348332	1.674166
O	0.000000	5.022498	1.674166
B	1.674166	5.022498	5.022498
Mg	0.000000	3.348332	3.348332
O	1.674166	5.022498	3.348332
O	1.674166	3.348332	5.022498
O	0.000000	5.022498	5.022498
B	5.022498	1.674166	1.674166
Mg	3.348332	0.000000	0.000000
O	5.022498	1.674166	0.000000
O	5.022498	0.000000	1.674166
O	3.348332	1.674166	1.674166
B	5.022498	1.674166	5.022498
Mg	3.348332	0.000000	3.348332
O	5.022498	1.674166	3.348332
O	5.022498	0.000000	5.022498
O	3.348332	1.674166	5.022498
B	5.022498	5.022498	1.674166
Mg	3.348332	3.348332	0.000000
O	5.022498	5.022498	0.000000
O	5.022498	3.348332	1.674166
O	3.348332	5.022498	1.674166
B	5.022498	5.022498	5.022498
Mg	3.348332	3.348332	3.348332
O	5.022498	5.022498	3.348332
O	5.022498	3.348332	5.022498
O	3.348332	5.022498	5.022498
