40

B	1.678612	1.678612	1.678612
Mg	0.000000	0.000000	0.000000
O	0.000000	1.678612	1.678612
O	1.678612	0.000000	1.678612
O	1.678612	1.678612	0.000000
B	1.678612	1.678612	5.035837
Mg	0.000000	0.000000	3.357225
O	0.000000	1.678612	5.035837
O	1.678612	0.000000	5.035837
O	1.678612	1.678612	3.357225
B	1.678612	5.035837	1.678612
Mg	0.000000	3.357225	0.000000
O	0.000000	5.035837	1.678612
O	1.678612	3.357225	1.678612
O	1.678612	5.035837	0.000000
B	1.678612	5.035837	5.035837
Mg	0.000000	3.357225	3.357225
O	0.000000	5.035837	5.035837
O	1.678612	3.357225	5.035837
O	1.678612	5.035837	3.357225
B	5.035837	1.678612	1.678612
Mg	3.357225	0.000000	0.000000
O	3.357225	1.678612	1.678612
O	5.035837	0.000000	1.678612
O	5.035837	1.678612	0.000000
B	5.035837	1.678612	5.035837
Mg	3.357225	0.000000	3.357225
O	3.357225	1.678612	5.035837
O	5.035837	0.000000	5.035837
O	5.035837	1.678612	3.357225
B	5.035837	5.035837	1.678612
Mg	3.357225	3.357225	0.000000
O	3.357225	5.035837	1.678612
O	5.035837	3.357225	1.678612
O	5.035837	5.035837	0.000000
B	5.035837	5.035837	5.035837
Mg	3.357225	3.357225	3.357225
O	3.357225	5.035837	5.035837
O	5.035837	3.357225	5.035837
O	5.035837	5.035837	3.357225
