112

O	-1.059001	1.058443	-3.933845
O	3.931766	-1.058443	-1.058443
O	1.059001	-1.058443	-3.933845
O	1.436382	1.437706	-1.437706
O	6.049769	1.058443	-1.058443
O	1.436382	3.554582	-3.554582
O	3.554385	3.554582	-1.437706
O	3.554385	1.437706	-3.554582
Sr	0.000000	0.000000	0.000000
Sr	2.495384	-2.496149	-2.496149
Te	-1.247692	-1.248074	-3.744213
Te	1.247692	1.248074	-3.744213
Te	6.238459	-1.248074	-1.248074
Te	3.743075	1.248074	-1.248074
O	3.931764	6.050731	-3.933845
O	8.922531	3.933845	-1.058443
O	6.049767	3.933845	-3.933845
O	6.427147	6.429994	-1.437706
O	11.040534	6.050731	-1.058443
O	6.427147	8.546870	-3.554582
O	8.545150	8.546870	-1.437706
O	8.545150	6.429994	-3.554582
Sr	4.990765	4.992288	0.000000
Sr	7.486149	2.496139	-2.496149
Te	3.743073	3.744214	-3.744213
Te	6.238457	6.240363	-3.744213
Te	11.229224	3.744214	-1.248074
Te	8.733840	6.240363	-1.248074
O	-6.049767	1.058443	-8.926133
O	-1.059000	-1.058443	-6.050731
O	-3.931764	-1.058443	-8.926133
O	-3.554383	1.437706	-6.429994
O	1.059003	1.058443	-6.050731
O	-3.554383	3.554582	-8.546870
O	-1.436380	3.554582	-6.429994
O	-1.436380	1.437706	-8.546870
Sr	-4.990765	0.000000	-4.992288
Sr	-2.495382	-2.496149	-7.488437
Te	-6.238457	-1.248074	-8.736502
Te	-3.743073	1.248074	-8.736502
Te	1.247694	-1.248074	-6.240363
Te	-1.247690	1.248074	-6.240363
O	-1.059001	6.050731	-8.926133
O	3.931766	3.933845	-6.050731
O	1.059001	3.933845	-8.926133
O	1.436382	6.429994	-6.429994
O	6.049769	6.050731	-6.050731
O	1.436382	8.546870	-8.546870
O	3.554385	8.546870	-6.429994
O	3.554385	6.429994	-8.546870
Sr	0.000000	4.992288	-4.992288
Sr	2.495384	2.496139	-7.488437
Te	-1.247692	3.744214	-8.736502
Te	1.247692	6.240363	-8.736502
Te	6.238459	3.744214	-6.240363
Te	3.743075	6.240363	-6.240363
O	3.931764	-3.933845	-3.933845
O	8.922531	-6.050731	-1.058443
O	6.049767	-6.050731	-3.933845
O	6.427147	-3.554582	-1.437706
O	11.040534	-3.933845	-1.058443
O	6.427147	-1.437706	-3.554582
O	8.545150	-1.437706	-1.437706
O	8.545150	-3.554582	-3.554582
Sr	4.990765	-4.992288	0.000000
Sr	7.486149	-7.488437	-2.496149
Te	3.743073	-6.240363	-3.744213
Te	6.238457	-3.744214	-3.744213
Te	11.229224	-6.240363	-1.248074
Te	8.733840	-3.744214	-1.248074
O	8.922529	1.058443	-3.933845
O	13.913296	-1.058443	-1.058443
O	11.040532	-1.058443	-3.933845
O	11.417912	1.437706	-1.437706
O	16.031299	1.058443	-1.058443
O	11.417912	3.554582	-3.554582
O	13.535915	3.554582	-1.437706
O	13.535915	1.437706	-3.554582
Sr	9.981530	0.000000	0.000000
Sr	12.476914	-2.496149	-2.496149
Te	8.733839	-1.248074	-3.744213
Te	11.229222	1.248074	-3.744213
Te	16.219989	-1.248074	-1.248074
Te	13.724606	1.248074	-1.248074
O	-1.059001	-3.933845	-8.926133
O	3.931766	-6.050731	-6.050731
O	1.059001	-6.050731	-8.926133
O	1.436382	-3.554582	-6.429994
O	6.049769	-3.933845	-6.050731
O	1.436382	-1.437706	-8.546870
O	3.554385	-1.437706	-6.429994
O	3.554385	-3.554582	-8.546870
Sr	0.000000	-4.992288	-4.992288
Sr	2.495384	-7.488437	-7.488437
Te	-1.247692	-6.240363	-8.736502
Te	1.247692	-3.744214	-8.736502
Te	6.238459	-6.240363	-6.240363
Te	3.743075	-3.744214	-6.240363
O	3.931764	1.058443	-8.926133
O	8.922531	-1.058443	-6.050731
O	6.049767	-1.058443	-8.926133
O	6.427147	1.437706	-6.429994
O	11.040534	1.058443	-6.050731
O	6.427147	3.554582	-8.546870
O	8.545150	3.554582	-6.429994
O	8.545150	1.437706	-8.546870
Sr	4.990765	0.000000	-4.992288
Sr	7.486149	-2.496149	-7.488437
Te	3.743073	-1.248074	-8.736502
Te	6.238457	1.248074	-8.736502
Te	11.229224	-1.248074	-6.240363
Te	8.733840	1.248074	-6.240363
