40

B	0.000000	0.000000	0.000000
O	0.000000	1.939611	1.939611
O	1.939611	0.000000	1.939611
O	1.939611	1.939611	0.000000
Re	1.939611	1.939611	1.939611
B	0.000000	0.000000	3.879221
O	0.000000	1.939611	5.818832
O	1.939611	0.000000	5.818832
O	1.939611	1.939611	3.879221
Re	1.939611	1.939611	5.818832
B	0.000000	3.879221	0.000000
O	0.000000	5.818832	1.939611
O	1.939611	3.879221	1.939611
O	1.939611	5.818832	0.000000
Re	1.939611	5.818832	1.939611
B	0.000000	3.879221	3.879221
O	0.000000	5.818832	5.818832
O	1.939611	3.879221	5.818832
O	1.939611	5.818832	3.879221
Re	1.939611	5.818832	5.818832
B	3.879221	0.000000	0.000000
O	3.879221	1.939611	1.939611
O	5.818832	0.000000	1.939611
O	5.818832	1.939611	0.000000
Re	5.818832	1.939611	1.939611
B	3.879221	0.000000	3.879221
O	3.879221	1.939611	5.818832
O	5.818832	0.000000	5.818832
O	5.818832	1.939611	3.879221
Re	5.818832	1.939611	5.818832
B	3.879221	3.879221	0.000000
O	3.879221	5.818832	1.939611
O	5.818832	3.879221	1.939611
O	5.818832	5.818832	0.000000
Re	5.818832	5.818832	1.939611
B	3.879221	3.879221	3.879221
O	3.879221	5.818832	5.818832
O	5.818832	3.879221	5.818832
O	5.818832	5.818832	3.879221
Re	5.818832	5.818832	5.818832
