40

Cu	1.862112	1.862112	1.862112
O	0.000000	1.862112	1.862112
O	1.862112	0.000000	1.862112
O	1.862112	1.862112	0.000000
Sc	0.000000	0.000000	0.000000
Cu	1.862112	1.862112	5.586336
O	0.000000	1.862112	5.586336
O	1.862112	0.000000	5.586336
O	1.862112	1.862112	3.724224
Sc	0.000000	0.000000	3.724224
Cu	1.862112	5.586336	1.862112
O	0.000000	5.586336	1.862112
O	1.862112	3.724224	1.862112
O	1.862112	5.586336	0.000000
Sc	0.000000	3.724224	0.000000
Cu	1.862112	5.586336	5.586336
O	0.000000	5.586336	5.586336
O	1.862112	3.724224	5.586336
O	1.862112	5.586336	3.724224
Sc	0.000000	3.724224	3.724224
Cu	5.586336	1.862112	1.862112
O	3.724224	1.862112	1.862112
O	5.586336	0.000000	1.862112
O	5.586336	1.862112	0.000000
Sc	3.724224	0.000000	0.000000
Cu	5.586336	1.862112	5.586336
O	3.724224	1.862112	5.586336
O	5.586336	0.000000	5.586336
O	5.586336	1.862112	3.724224
Sc	3.724224	0.000000	3.724224
Cu	5.586336	5.586336	1.862112
O	3.724224	5.586336	1.862112
O	5.586336	3.724224	1.862112
O	5.586336	5.586336	0.000000
Sc	3.724224	3.724224	0.000000
Cu	5.586336	5.586336	5.586336
O	3.724224	5.586336	5.586336
O	5.586336	3.724224	5.586336
O	5.586336	5.586336	3.724224
Sc	3.724224	3.724224	3.724224
