40

Cu	0.000000	0.000000	0.000000
O	0.000000	2.067580	2.067580
O	2.067580	0.000000	2.067580
O	2.067580	2.067580	0.000000
Sc	2.067580	2.067580	2.067580
Cu	0.000000	0.000000	4.135159
O	0.000000	2.067580	6.202739
O	2.067580	0.000000	6.202739
O	2.067580	2.067580	4.135159
Sc	2.067580	2.067580	6.202739
Cu	0.000000	4.135159	0.000000
O	0.000000	6.202739	2.067580
O	2.067580	4.135159	2.067580
O	2.067580	6.202739	0.000000
Sc	2.067580	6.202739	2.067580
Cu	0.000000	4.135159	4.135159
O	0.000000	6.202739	6.202739
O	2.067580	4.135159	6.202739
O	2.067580	6.202739	4.135159
Sc	2.067580	6.202739	6.202739
Cu	4.135159	0.000000	0.000000
O	4.135159	2.067580	2.067580
O	6.202739	0.000000	2.067580
O	6.202739	2.067580	0.000000
Sc	6.202739	2.067580	2.067580
Cu	4.135159	0.000000	4.135159
O	4.135159	2.067580	6.202739
O	6.202739	0.000000	6.202739
O	6.202739	2.067580	4.135159
Sc	6.202739	2.067580	6.202739
Cu	4.135159	4.135159	0.000000
O	4.135159	6.202739	2.067580
O	6.202739	4.135159	2.067580
O	6.202739	6.202739	0.000000
Sc	6.202739	6.202739	2.067580
Cu	4.135159	4.135159	4.135159
O	4.135159	6.202739	6.202739
O	6.202739	4.135159	6.202739
O	6.202739	6.202739	4.135159
Sc	6.202739	6.202739	6.202739
