40

Br	1.978987	1.978987	1.978987
Na	0.000000	0.000000	0.000000
O	0.000000	1.978987	1.978987
O	1.978987	0.000000	1.978987
O	1.978987	1.978987	0.000000
Br	1.978987	1.978987	5.936961
Na	0.000000	0.000000	3.957974
O	0.000000	1.978987	5.936961
O	1.978987	0.000000	5.936961
O	1.978987	1.978987	3.957974
Br	1.978987	5.936961	1.978987
Na	0.000000	3.957974	0.000000
O	0.000000	5.936961	1.978987
O	1.978987	3.957974	1.978987
O	1.978987	5.936961	0.000000
Br	1.978987	5.936961	5.936961
Na	0.000000	3.957974	3.957974
O	0.000000	5.936961	5.936961
O	1.978987	3.957974	5.936961
O	1.978987	5.936961	3.957974
Br	5.936961	1.978987	1.978987
Na	3.957974	0.000000	0.000000
O	3.957974	1.978987	1.978987
O	5.936961	0.000000	1.978987
O	5.936961	1.978987	0.000000
Br	5.936961	1.978987	5.936961
Na	3.957974	0.000000	3.957974
O	3.957974	1.978987	5.936961
O	5.936961	0.000000	5.936961
O	5.936961	1.978987	3.957974
Br	5.936961	5.936961	1.978987
Na	3.957974	3.957974	0.000000
O	3.957974	5.936961	1.978987
O	5.936961	3.957974	1.978987
O	5.936961	5.936961	0.000000
Br	5.936961	5.936961	5.936961
Na	3.957974	3.957974	3.957974
O	3.957974	5.936961	5.936961
O	5.936961	3.957974	5.936961
O	5.936961	5.936961	3.957974
