40

Br	0.000000	0.000000	0.000000
Na	2.086880	2.086880	2.086880
O	0.000000	2.086880	2.086880
O	2.086880	0.000000	2.086880
O	2.086880	2.086880	0.000000
Br	0.000000	0.000000	4.173760
Na	2.086880	2.086880	6.260640
O	0.000000	2.086880	6.260640
O	2.086880	0.000000	6.260640
O	2.086880	2.086880	4.173760
Br	0.000000	4.173760	0.000000
Na	2.086880	6.260640	2.086880
O	0.000000	6.260640	2.086880
O	2.086880	4.173760	2.086880
O	2.086880	6.260640	0.000000
Br	0.000000	4.173760	4.173760
Na	2.086880	6.260640	6.260640
O	0.000000	6.260640	6.260640
O	2.086880	4.173760	6.260640
O	2.086880	6.260640	4.173760
Br	4.173760	0.000000	0.000000
Na	6.260640	2.086880	2.086880
O	4.173760	2.086880	2.086880
O	6.260640	0.000000	2.086880
O	6.260640	2.086880	0.000000
Br	4.173760	0.000000	4.173760
Na	6.260640	2.086880	6.260640
O	4.173760	2.086880	6.260640
O	6.260640	0.000000	6.260640
O	6.260640	2.086880	4.173760
Br	4.173760	4.173760	0.000000
Na	6.260640	6.260640	2.086880
O	4.173760	6.260640	2.086880
O	6.260640	4.173760	2.086880
O	6.260640	6.260640	0.000000
Br	4.173760	4.173760	4.173760
Na	6.260640	6.260640	6.260640
O	4.173760	6.260640	6.260640
O	6.260640	4.173760	6.260640
O	6.260640	6.260640	4.173760
