40

Br	0.000000	0.000000	0.000000
O	0.000000	1.965191	1.965191
O	1.965191	0.000000	1.965191
O	1.965191	1.965191	0.000000
Os	1.965191	1.965191	1.965191
Br	0.000000	0.000000	3.930383
O	0.000000	1.965191	5.895574
O	1.965191	0.000000	5.895574
O	1.965191	1.965191	3.930383
Os	1.965191	1.965191	5.895574
Br	0.000000	3.930383	0.000000
O	0.000000	5.895574	1.965191
O	1.965191	3.930383	1.965191
O	1.965191	5.895574	0.000000
Os	1.965191	5.895574	1.965191
Br	0.000000	3.930383	3.930383
O	0.000000	5.895574	5.895574
O	1.965191	3.930383	5.895574
O	1.965191	5.895574	3.930383
Os	1.965191	5.895574	5.895574
Br	3.930383	0.000000	0.000000
O	3.930383	1.965191	1.965191
O	5.895574	0.000000	1.965191
O	5.895574	1.965191	0.000000
Os	5.895574	1.965191	1.965191
Br	3.930383	0.000000	3.930383
O	3.930383	1.965191	5.895574
O	5.895574	0.000000	5.895574
O	5.895574	1.965191	3.930383
Os	5.895574	1.965191	5.895574
Br	3.930383	3.930383	0.000000
O	3.930383	5.895574	1.965191
O	5.895574	3.930383	1.965191
O	5.895574	5.895574	0.000000
Os	5.895574	5.895574	1.965191
Br	3.930383	3.930383	3.930383
O	3.930383	5.895574	5.895574
O	5.895574	3.930383	5.895574
O	5.895574	5.895574	3.930383
Os	5.895574	5.895574	5.895574
