40

Cl	0.000000	0.000000	0.000000
O	0.000000	1.881905	1.881905
O	1.881905	0.000000	1.881905
O	1.881905	1.881905	0.000000
S	1.881905	1.881905	1.881905
Cl	0.000000	0.000000	3.763810
O	0.000000	1.881905	5.645714
O	1.881905	0.000000	5.645714
O	1.881905	1.881905	3.763810
S	1.881905	1.881905	5.645714
Cl	0.000000	3.763810	0.000000
O	0.000000	5.645714	1.881905
O	1.881905	3.763810	1.881905
O	1.881905	5.645714	0.000000
S	1.881905	5.645714	1.881905
Cl	0.000000	3.763810	3.763810
O	0.000000	5.645714	5.645714
O	1.881905	3.763810	5.645714
O	1.881905	5.645714	3.763810
S	1.881905	5.645714	5.645714
Cl	3.763810	0.000000	0.000000
O	3.763810	1.881905	1.881905
O	5.645714	0.000000	1.881905
O	5.645714	1.881905	0.000000
S	5.645714	1.881905	1.881905
Cl	3.763810	0.000000	3.763810
O	3.763810	1.881905	5.645714
O	5.645714	0.000000	5.645714
O	5.645714	1.881905	3.763810
S	5.645714	1.881905	5.645714
Cl	3.763810	3.763810	0.000000
O	3.763810	5.645714	1.881905
O	5.645714	3.763810	1.881905
O	5.645714	5.645714	0.000000
S	5.645714	5.645714	1.881905
Cl	3.763810	3.763810	3.763810
O	3.763810	5.645714	5.645714
O	5.645714	3.763810	5.645714
O	5.645714	5.645714	3.763810
S	5.645714	5.645714	5.645714
