40

Mg	1.870463	1.870463	1.870463
Cu	0.000000	0.000000	0.000000
O	1.870463	0.000000	0.000000
O	0.000000	1.870463	0.000000
O	0.000000	0.000000	1.870463
Mg	1.870463	1.870463	5.611389
Cu	0.000000	0.000000	3.740926
O	1.870463	0.000000	3.740926
O	0.000000	1.870463	3.740926
O	0.000000	0.000000	5.611389
Mg	1.870463	5.611389	1.870463
Cu	0.000000	3.740926	0.000000
O	1.870463	3.740926	0.000000
O	0.000000	5.611389	0.000000
O	0.000000	3.740926	1.870463
Mg	1.870463	5.611389	5.611389
Cu	0.000000	3.740926	3.740926
O	1.870463	3.740926	3.740926
O	0.000000	5.611389	3.740926
O	0.000000	3.740926	5.611389
Mg	5.611389	1.870463	1.870463
Cu	3.740926	0.000000	0.000000
O	5.611389	0.000000	0.000000
O	3.740926	1.870463	0.000000
O	3.740926	0.000000	1.870463
Mg	5.611389	1.870463	5.611389
Cu	3.740926	0.000000	3.740926
O	5.611389	0.000000	3.740926
O	3.740926	1.870463	3.740926
O	3.740926	0.000000	5.611389
Mg	5.611389	5.611389	1.870463
Cu	3.740926	3.740926	0.000000
O	5.611389	3.740926	0.000000
O	3.740926	5.611389	0.000000
O	3.740926	3.740926	1.870463
Mg	5.611389	5.611389	5.611389
Cu	3.740926	3.740926	3.740926
O	5.611389	3.740926	3.740926
O	3.740926	5.611389	3.740926
O	3.740926	3.740926	5.611389
