40

Ca	0.000000	0.000000	0.000000
Ni	1.876545	1.876545	1.876545
O	0.000000	1.876545	1.876545
O	1.876545	0.000000	1.876545
O	1.876545	1.876545	0.000000
Ca	0.000000	0.000000	3.753090
Ni	1.876545	1.876545	5.629635
O	0.000000	1.876545	5.629635
O	1.876545	0.000000	5.629635
O	1.876545	1.876545	3.753090
Ca	0.000000	3.753090	0.000000
Ni	1.876545	5.629635	1.876545
O	0.000000	5.629635	1.876545
O	1.876545	3.753090	1.876545
O	1.876545	5.629635	0.000000
Ca	0.000000	3.753090	3.753090
Ni	1.876545	5.629635	5.629635
O	0.000000	5.629635	5.629635
O	1.876545	3.753090	5.629635
O	1.876545	5.629635	3.753090
Ca	3.753090	0.000000	0.000000
Ni	5.629635	1.876545	1.876545
O	3.753090	1.876545	1.876545
O	5.629635	0.000000	1.876545
O	5.629635	1.876545	0.000000
Ca	3.753090	0.000000	3.753090
Ni	5.629635	1.876545	5.629635
O	3.753090	1.876545	5.629635
O	5.629635	0.000000	5.629635
O	5.629635	1.876545	3.753090
Ca	3.753090	3.753090	0.000000
Ni	5.629635	5.629635	1.876545
O	3.753090	5.629635	1.876545
O	5.629635	3.753090	1.876545
O	5.629635	5.629635	0.000000
Ca	3.753090	3.753090	3.753090
Ni	5.629635	5.629635	5.629635
O	3.753090	5.629635	5.629635
O	5.629635	3.753090	5.629635
O	5.629635	5.629635	3.753090
