40

Cr	1.867709	1.867709	1.867709
O	0.000000	1.867709	1.867709
O	1.867709	0.000000	1.867709
O	1.867709	1.867709	0.000000
Pd	0.000000	0.000000	0.000000
Cr	1.867709	1.867709	5.603128
O	0.000000	1.867709	5.603128
O	1.867709	0.000000	5.603128
O	1.867709	1.867709	3.735419
Pd	0.000000	0.000000	3.735419
Cr	1.867709	5.603128	1.867709
O	0.000000	5.603128	1.867709
O	1.867709	3.735419	1.867709
O	1.867709	5.603128	0.000000
Pd	0.000000	3.735419	0.000000
Cr	1.867709	5.603128	5.603128
O	0.000000	5.603128	5.603128
O	1.867709	3.735419	5.603128
O	1.867709	5.603128	3.735419
Pd	0.000000	3.735419	3.735419
Cr	5.603128	1.867709	1.867709
O	3.735419	1.867709	1.867709
O	5.603128	0.000000	1.867709
O	5.603128	1.867709	0.000000
Pd	3.735419	0.000000	0.000000
Cr	5.603128	1.867709	5.603128
O	3.735419	1.867709	5.603128
O	5.603128	0.000000	5.603128
O	5.603128	1.867709	3.735419
Pd	3.735419	0.000000	3.735419
Cr	5.603128	5.603128	1.867709
O	3.735419	5.603128	1.867709
O	5.603128	3.735419	1.867709
O	5.603128	5.603128	0.000000
Pd	3.735419	3.735419	0.000000
Cr	5.603128	5.603128	5.603128
O	3.735419	5.603128	5.603128
O	5.603128	3.735419	5.603128
O	5.603128	5.603128	3.735419
Pd	3.735419	3.735419	3.735419
