40

Al	0.000000	0.000000	0.000000
As	1.906170	1.906170	1.906170
O	1.906170	1.906170	0.000000
O	0.000000	1.906170	1.906170
O	1.906170	0.000000	1.906170
Al	0.000000	0.000000	3.812323
As	1.906170	1.906170	5.718493
O	1.906170	1.906170	3.812323
O	0.000000	1.906170	5.718493
O	1.906170	0.000000	5.718493
Al	0.000000	3.812323	0.000000
As	1.906170	5.718493	1.906170
O	1.906170	5.718493	0.000000
O	0.000000	5.718493	1.906170
O	1.906170	3.812323	1.906170
Al	0.000000	3.812323	3.812323
As	1.906170	5.718493	5.718493
O	1.906170	5.718493	3.812323
O	0.000000	5.718493	5.718493
O	1.906170	3.812323	5.718493
Al	3.812323	0.000000	0.000000
As	5.718493	1.906170	1.906170
O	5.718493	1.906170	0.000000
O	3.812323	1.906170	1.906170
O	5.718493	0.000000	1.906170
Al	3.812323	0.000000	3.812323
As	5.718493	1.906170	5.718493
O	5.718493	1.906170	3.812323
O	3.812323	1.906170	5.718493
O	5.718493	0.000000	5.718493
Al	3.812323	3.812323	0.000000
As	5.718493	5.718493	1.906170
O	5.718493	5.718493	0.000000
O	3.812323	5.718493	1.906170
O	5.718493	3.812323	1.906170
Al	3.812323	3.812323	3.812323
As	5.718493	5.718493	5.718493
O	5.718493	5.718493	3.812323
O	3.812323	5.718493	5.718493
O	5.718493	3.812323	5.718493
