40

Al	1.824970	1.824970	1.824970
As	0.000000	0.000000	0.000000
O	1.824970	0.000000	1.824970
O	0.000000	1.824970	1.824970
O	1.824970	1.824970	0.000000
Al	1.824970	1.824970	5.474919
As	0.000000	0.000000	3.649949
O	1.824970	0.000000	5.474919
O	0.000000	1.824970	5.474919
O	1.824970	1.824970	3.649949
Al	1.824970	5.474919	1.824970
As	0.000000	3.649949	0.000000
O	1.824970	3.649949	1.824970
O	0.000000	5.474919	1.824970
O	1.824970	5.474919	0.000000
Al	1.824970	5.474919	5.474919
As	0.000000	3.649949	3.649949
O	1.824970	3.649949	5.474919
O	0.000000	5.474919	5.474919
O	1.824970	5.474919	3.649949
Al	5.474919	1.824970	1.824970
As	3.649949	0.000000	0.000000
O	5.474919	0.000000	1.824970
O	3.649949	1.824970	1.824970
O	5.474919	1.824970	0.000000
Al	5.474919	1.824970	5.474919
As	3.649949	0.000000	3.649949
O	5.474919	0.000000	5.474919
O	3.649949	1.824970	5.474919
O	5.474919	1.824970	3.649949
Al	5.474919	5.474919	1.824970
As	3.649949	3.649949	0.000000
O	5.474919	3.649949	1.824970
O	3.649949	5.474919	1.824970
O	5.474919	5.474919	0.000000
Al	5.474919	5.474919	5.474919
As	3.649949	3.649949	3.649949
O	5.474919	3.649949	5.474919
O	3.649949	5.474919	5.474919
O	5.474919	5.474919	3.649949
