112

Na	0.000000	0.000000	0.000000
Na	2.121426	-2.117825	-2.117825
Ni	-1.060713	-1.058912	-3.176737
Ni	3.182139	1.058912	-1.058912
Ni	5.303566	-1.058912	-1.058912
Ni	1.060713	1.058912	-3.176737
O	3.357685	-0.881035	-0.881035
O	-0.885167	0.881035	-3.354615
O	0.885167	-0.881035	-3.354615
O	1.236259	1.236790	-1.236790
O	5.128020	0.881035	-0.881035
O	1.236259	2.998860	-2.998860
O	3.006593	2.998860	-1.236790
O	3.006593	1.236790	-2.998860
Na	4.242853	4.235650	0.000000
Na	6.364279	2.117825	-2.117825
Ni	3.182139	3.176737	-3.176737
Ni	7.424992	5.294562	-1.058912
Ni	9.546418	3.176737	-1.058912
Ni	5.303566	5.294562	-3.176737
O	7.600538	3.354615	-0.881035
O	3.357685	5.116685	-3.354615
O	5.128020	3.354615	-3.354615
O	5.479112	5.472440	-1.236790
O	9.370872	5.116685	-0.881035
O	5.479112	7.234510	-2.998860
O	7.249446	7.234510	-1.236790
O	7.249446	5.472440	-2.998860
Na	-4.242853	0.000000	-4.235650
Na	-2.121426	-2.117825	-6.353475
Ni	-5.303566	-1.058912	-7.412387
Ni	-1.060713	1.058912	-5.294562
Ni	1.060713	-1.058912	-5.294562
Ni	-3.182139	1.058912	-7.412387
O	-0.885167	-0.881035	-5.116685
O	-5.128020	0.881035	-7.590265
O	-3.357685	-0.881035	-7.590265
O	-3.006593	1.236790	-5.472440
O	0.885167	0.881035	-5.116685
O	-3.006593	2.998860	-7.234510
O	-1.236259	2.998860	-5.472440
O	-1.236259	1.236790	-7.234510
Na	0.000000	4.235650	-4.235650
Na	2.121426	2.117825	-6.353475
Ni	-1.060713	3.176737	-7.412387
Ni	3.182139	5.294562	-5.294562
Ni	5.303566	3.176737	-5.294562
Ni	1.060713	5.294562	-7.412387
O	3.357685	3.354615	-5.116685
O	-0.885167	5.116685	-7.590265
O	0.885167	3.354615	-7.590265
O	1.236259	5.472440	-5.472440
O	5.128020	5.116685	-5.116685
O	1.236259	7.234510	-7.234510
O	3.006593	7.234510	-5.472440
O	3.006593	5.472440	-7.234510
Na	4.242853	-4.235650	0.000000
Na	6.364279	-6.353475	-2.117825
Ni	3.182139	-5.294562	-3.176737
Ni	7.424992	-3.176737	-1.058912
Ni	9.546418	-5.294562	-1.058912
Ni	5.303566	-3.176737	-3.176737
O	7.600538	-5.116685	-0.881035
O	3.357685	-3.354615	-3.354615
O	5.128020	-5.116685	-3.354615
O	5.479112	-2.998860	-1.236790
O	9.370872	-3.354615	-0.881035
O	5.479112	-1.236790	-2.998860
O	7.249446	-1.236790	-1.236790
O	7.249446	-2.998860	-2.998860
Na	8.485705	0.000000	0.000000
Na	10.607131	-2.117825	-2.117825
Ni	7.424992	-1.058912	-3.176737
Ni	11.667845	1.058912	-1.058912
Ni	13.789271	-1.058912	-1.058912
Ni	9.546418	1.058912	-3.176737
O	11.843391	-0.881035	-0.881035
O	7.600538	0.881035	-3.354615
O	9.370872	-0.881035	-3.354615
O	9.721964	1.236790	-1.236790
O	13.613725	0.881035	-0.881035
O	9.721964	2.998860	-2.998860
O	11.492298	2.998860	-1.236790
O	11.492298	1.236790	-2.998860
Na	0.000000	-4.235650	-4.235650
Na	2.121426	-6.353475	-6.353475
Ni	-1.060713	-5.294562	-7.412387
Ni	3.182139	-3.176737	-5.294562
Ni	5.303566	-5.294562	-5.294562
Ni	1.060713	-3.176737	-7.412387
O	3.357685	-5.116685	-5.116685
O	-0.885167	-3.354615	-7.590265
O	0.885167	-5.116685	-7.590265
O	1.236259	-2.998860	-5.472440
O	5.128020	-3.354615	-5.116685
O	1.236259	-1.236790	-7.234510
O	3.006593	-1.236790	-5.472440
O	3.006593	-2.998860	-7.234510
Na	4.242853	0.000000	-4.235650
Na	6.364279	-2.117825	-6.353475
Ni	3.182139	-1.058912	-7.412387
Ni	7.424992	1.058912	-5.294562
Ni	9.546418	-1.058912	-5.294562
Ni	5.303566	1.058912	-7.412387
O	7.600538	-0.881035	-5.116685
O	3.357685	0.881035	-7.590265
O	5.128020	-0.881035	-7.590265
O	5.479112	1.236790	-5.472440
O	9.370872	0.881035	-5.116685
O	5.479112	2.998860	-7.234510
O	7.249446	2.998860	-5.472440
O	7.249446	1.236790	-7.234510
