40

Cr	1.857718	1.857718	1.857718
Li	0.000000	0.000000	0.000000
O	0.000000	1.857718	1.857718
O	1.857718	0.000000	1.857718
O	1.857718	1.857718	0.000000
Cr	1.857718	1.857718	5.573153
Li	0.000000	0.000000	3.715435
O	0.000000	1.857718	5.573153
O	1.857718	0.000000	5.573153
O	1.857718	1.857718	3.715435
Cr	1.857718	5.573153	1.857718
Li	0.000000	3.715435	0.000000
O	0.000000	5.573153	1.857718
O	1.857718	3.715435	1.857718
O	1.857718	5.573153	0.000000
Cr	1.857718	5.573153	5.573153
Li	0.000000	3.715435	3.715435
O	0.000000	5.573153	5.573153
O	1.857718	3.715435	5.573153
O	1.857718	5.573153	3.715435
Cr	5.573153	1.857718	1.857718
Li	3.715435	0.000000	0.000000
O	3.715435	1.857718	1.857718
O	5.573153	0.000000	1.857718
O	5.573153	1.857718	0.000000
Cr	5.573153	1.857718	5.573153
Li	3.715435	0.000000	3.715435
O	3.715435	1.857718	5.573153
O	5.573153	0.000000	5.573153
O	5.573153	1.857718	3.715435
Cr	5.573153	5.573153	1.857718
Li	3.715435	3.715435	0.000000
O	3.715435	5.573153	1.857718
O	5.573153	3.715435	1.857718
O	5.573153	5.573153	0.000000
Cr	5.573153	5.573153	5.573153
Li	3.715435	3.715435	3.715435
O	3.715435	5.573153	5.573153
O	5.573153	3.715435	5.573153
O	5.573153	5.573153	3.715435
