40

Cr	0.000000	0.000000	0.000000
Li	1.794650	1.794650	1.794650
O	0.000000	1.794650	1.794650
O	1.794650	0.000000	1.794650
O	1.794650	1.794650	0.000000
Cr	0.000000	0.000000	3.589300
Li	1.794650	1.794650	5.383949
O	0.000000	1.794650	5.383949
O	1.794650	0.000000	5.383949
O	1.794650	1.794650	3.589300
Cr	0.000000	3.589300	0.000000
Li	1.794650	5.383949	1.794650
O	0.000000	5.383949	1.794650
O	1.794650	3.589300	1.794650
O	1.794650	5.383949	0.000000
Cr	0.000000	3.589300	3.589300
Li	1.794650	5.383949	5.383949
O	0.000000	5.383949	5.383949
O	1.794650	3.589300	5.383949
O	1.794650	5.383949	3.589300
Cr	3.589300	0.000000	0.000000
Li	5.383949	1.794650	1.794650
O	3.589300	1.794650	1.794650
O	5.383949	0.000000	1.794650
O	5.383949	1.794650	0.000000
Cr	3.589300	0.000000	3.589300
Li	5.383949	1.794650	5.383949
O	3.589300	1.794650	5.383949
O	5.383949	0.000000	5.383949
O	5.383949	1.794650	3.589300
Cr	3.589300	3.589300	0.000000
Li	5.383949	5.383949	1.794650
O	3.589300	5.383949	1.794650
O	5.383949	3.589300	1.794650
O	5.383949	5.383949	0.000000
Cr	3.589300	3.589300	3.589300
Li	5.383949	5.383949	5.383949
O	3.589300	5.383949	5.383949
O	5.383949	3.589300	5.383949
O	5.383949	5.383949	3.589300
