40

Cu	0.000000	0.000000	0.000000
Na	2.008640	2.008640	2.008640
O	2.008640	2.008640	0.000000
O	2.008640	0.000000	2.008640
O	0.000000	2.008640	2.008640
Cu	0.000000	0.000000	4.017279
Na	2.008640	2.008640	6.025919
O	2.008640	2.008640	4.017279
O	2.008640	0.000000	6.025919
O	0.000000	2.008640	6.025919
Cu	0.000000	4.017279	0.000000
Na	2.008640	6.025919	2.008640
O	2.008640	6.025919	0.000000
O	2.008640	4.017279	2.008640
O	0.000000	6.025919	2.008640
Cu	0.000000	4.017279	4.017279
Na	2.008640	6.025919	6.025919
O	2.008640	6.025919	4.017279
O	2.008640	4.017279	6.025919
O	0.000000	6.025919	6.025919
Cu	4.017279	0.000000	0.000000
Na	6.025919	2.008640	2.008640
O	6.025919	2.008640	0.000000
O	6.025919	0.000000	2.008640
O	4.017279	2.008640	2.008640
Cu	4.017279	0.000000	4.017279
Na	6.025919	2.008640	6.025919
O	6.025919	2.008640	4.017279
O	6.025919	0.000000	6.025919
O	4.017279	2.008640	6.025919
Cu	4.017279	4.017279	0.000000
Na	6.025919	6.025919	2.008640
O	6.025919	6.025919	0.000000
O	6.025919	4.017279	2.008640
O	4.017279	6.025919	2.008640
Cu	4.017279	4.017279	4.017279
Na	6.025919	6.025919	6.025919
O	6.025919	6.025919	4.017279
O	6.025919	4.017279	6.025919
O	4.017279	6.025919	6.025919
