40

Cu	0.000000	0.000000	0.000000
Na	1.996463	1.996463	1.996463
O	1.996463	1.996463	0.000000
O	1.996463	0.000000	1.996463
O	0.000000	1.996463	1.996463
Cu	0.000000	0.000000	3.992925
Na	1.996463	1.996463	5.989388
O	1.996463	1.996463	3.992925
O	1.996463	0.000000	5.989388
O	0.000000	1.996463	5.989388
Cu	0.000000	3.992925	0.000000
Na	1.996463	5.989388	1.996463
O	1.996463	5.989388	0.000000
O	1.996463	3.992925	1.996463
O	0.000000	5.989388	1.996463
Cu	0.000000	3.992925	3.992925
Na	1.996463	5.989388	5.989388
O	1.996463	5.989388	3.992925
O	1.996463	3.992925	5.989388
O	0.000000	5.989388	5.989388
Cu	3.992925	0.000000	0.000000
Na	5.989388	1.996463	1.996463
O	5.989388	1.996463	0.000000
O	5.989388	0.000000	1.996463
O	3.992925	1.996463	1.996463
Cu	3.992925	0.000000	3.992925
Na	5.989388	1.996463	5.989388
O	5.989388	1.996463	3.992925
O	5.989388	0.000000	5.989388
O	3.992925	1.996463	5.989388
Cu	3.992925	3.992925	0.000000
Na	5.989388	5.989388	1.996463
O	5.989388	5.989388	0.000000
O	5.989388	3.992925	1.996463
O	3.992925	5.989388	1.996463
Cu	3.992925	3.992925	3.992925
Na	5.989388	5.989388	5.989388
O	5.989388	5.989388	3.992925
O	5.989388	3.992925	5.989388
O	3.992925	5.989388	5.989388
