40

Cu	0.000000	0.000000	0.000000
Na	2.083567	2.083567	2.083567
O	0.000000	2.083567	2.083567
O	2.083567	0.000000	2.083567
O	2.083567	2.083567	0.000000
Cu	0.000000	0.000000	4.167135
Na	2.083567	2.083567	6.250702
O	0.000000	2.083567	6.250702
O	2.083567	0.000000	6.250702
O	2.083567	2.083567	4.167135
Cu	0.000000	4.167135	0.000000
Na	2.083567	6.250702	2.083567
O	0.000000	6.250702	2.083567
O	2.083567	4.167135	2.083567
O	2.083567	6.250702	0.000000
Cu	0.000000	4.167135	4.167135
Na	2.083567	6.250702	6.250702
O	0.000000	6.250702	6.250702
O	2.083567	4.167135	6.250702
O	2.083567	6.250702	4.167135
Cu	4.167135	0.000000	0.000000
Na	6.250702	2.083567	2.083567
O	4.167135	2.083567	2.083567
O	6.250702	0.000000	2.083567
O	6.250702	2.083567	0.000000
Cu	4.167135	0.000000	4.167135
Na	6.250702	2.083567	6.250702
O	4.167135	2.083567	6.250702
O	6.250702	0.000000	6.250702
O	6.250702	2.083567	4.167135
Cu	4.167135	4.167135	0.000000
Na	6.250702	6.250702	2.083567
O	4.167135	6.250702	2.083567
O	6.250702	4.167135	2.083567
O	6.250702	6.250702	0.000000
Cu	4.167135	4.167135	4.167135
Na	6.250702	6.250702	6.250702
O	4.167135	6.250702	6.250702
O	6.250702	4.167135	6.250702
O	6.250702	6.250702	4.167135
