40

Mo	0.000000	0.000000	0.000000
O	1.816197	1.816197	0.000000
O	1.816197	0.000000	1.816197
O	0.000000	1.816197	1.816197
Si	1.816197	1.816197	1.816197
Mo	0.000000	0.000000	3.632395
O	1.816197	1.816197	3.632395
O	1.816197	0.000000	5.448592
O	0.000000	1.816197	5.448592
Si	1.816197	1.816197	5.448592
Mo	0.000000	3.632395	0.000000
O	1.816197	5.448592	0.000000
O	1.816197	3.632395	1.816197
O	0.000000	5.448592	1.816197
Si	1.816197	5.448592	1.816197
Mo	0.000000	3.632395	3.632395
O	1.816197	5.448592	3.632395
O	1.816197	3.632395	5.448592
O	0.000000	5.448592	5.448592
Si	1.816197	5.448592	5.448592
Mo	3.632395	0.000000	0.000000
O	5.448592	1.816197	0.000000
O	5.448592	0.000000	1.816197
O	3.632395	1.816197	1.816197
Si	5.448592	1.816197	1.816197
Mo	3.632395	0.000000	3.632395
O	5.448592	1.816197	3.632395
O	5.448592	0.000000	5.448592
O	3.632395	1.816197	5.448592
Si	5.448592	1.816197	5.448592
Mo	3.632395	3.632395	0.000000
O	5.448592	5.448592	0.000000
O	5.448592	3.632395	1.816197
O	3.632395	5.448592	1.816197
Si	5.448592	5.448592	1.816197
Mo	3.632395	3.632395	3.632395
O	5.448592	5.448592	3.632395
O	5.448592	3.632395	5.448592
O	3.632395	5.448592	5.448592
Si	5.448592	5.448592	5.448592
