112

O	3.627321	-1.489465	-1.489465
O	-1.488959	1.489465	-3.629402
O	1.488959	-1.489465	-3.629402
O	1.069181	1.069969	-1.069969
O	6.605238	1.489465	-1.489465
O	1.069181	4.048899	-4.048899
O	4.047098	4.048899	-1.069969
O	4.047098	1.069969	-4.048899
Te	0.000000	0.000000	0.000000
Te	2.558140	-2.559434	-2.559434
Tl	-1.279070	-1.279717	-3.839151
Tl	3.837210	1.279717	-1.279717
Tl	6.395349	-1.279717	-1.279717
Tl	1.279070	1.279717	-3.839151
O	8.743600	3.629402	-1.489465
O	3.627321	6.608332	-3.629402
O	6.605238	3.629402	-3.629402
O	6.185460	6.188836	-1.069969
O	11.721517	6.608332	-1.489465
O	6.185460	9.167766	-4.048899
O	9.163378	9.167766	-1.069969
O	9.163378	6.188836	-4.048899
Te	5.116279	5.118867	0.000000
Te	7.674419	2.559434	-2.559434
Tl	3.837210	3.839151	-3.839151
Tl	8.953489	6.398584	-1.279717
Tl	11.511629	3.839151	-1.279717
Tl	6.395349	6.398584	-3.839151
O	-1.488959	-1.489465	-6.608332
O	-6.605238	1.489465	-8.748270
O	-3.627321	-1.489465	-8.748270
O	-4.047098	1.069969	-6.188836
O	1.488959	1.489465	-6.608332
O	-4.047098	4.048899	-9.167766
O	-1.069181	4.048899	-6.188836
O	-1.069181	1.069969	-9.167766
Te	-5.116279	0.000000	-5.118867
Te	-2.558140	-2.559434	-7.678301
Tl	-6.395349	-1.279717	-8.958018
Tl	-1.279070	1.279717	-6.398584
Tl	1.279070	-1.279717	-6.398584
Tl	-3.837210	1.279717	-8.958018
O	3.627321	3.629402	-6.608332
O	-1.488959	6.608332	-8.748270
O	1.488959	3.629402	-8.748270
O	1.069181	6.188836	-6.188836
O	6.605238	6.608332	-6.608332
O	1.069181	9.167766	-9.167766
O	4.047098	9.167766	-6.188836
O	4.047098	6.188836	-9.167766
Te	0.000000	5.118867	-5.118867
Te	2.558140	2.559434	-7.678301
Tl	-1.279070	3.839151	-8.958018
Tl	3.837210	6.398584	-6.398584
Tl	6.395349	3.839151	-6.398584
Tl	1.279070	6.398584	-8.958018
O	8.743600	-6.608332	-1.489465
O	3.627321	-3.629402	-3.629402
O	6.605238	-6.608332	-3.629402
O	6.185460	-4.048899	-1.069969
O	11.721517	-3.629402	-1.489465
O	6.185460	-1.069969	-4.048899
O	9.163378	-1.069969	-1.069969
O	9.163378	-4.048899	-4.048899
Te	5.116279	-5.118867	0.000000
Te	7.674419	-7.678301	-2.559434
Tl	3.837210	-6.398584	-3.839151
Tl	8.953489	-3.839151	-1.279717
Tl	11.511629	-6.398584	-1.279717
Tl	6.395349	-3.839151	-3.839151
O	13.859879	-1.489465	-1.489465
O	8.743600	1.489465	-3.629402
O	11.721517	-1.489465	-3.629402
O	11.301740	1.069969	-1.069969
O	16.837797	1.489465	-1.489465
O	11.301740	4.048899	-4.048899
O	14.279657	4.048899	-1.069969
O	14.279657	1.069969	-4.048899
Te	10.232559	0.000000	0.000000
Te	12.790698	-2.559434	-2.559434
Tl	8.953489	-1.279717	-3.839151
Tl	14.069768	1.279717	-1.279717
Tl	16.627908	-1.279717	-1.279717
Tl	11.511629	1.279717	-3.839151
O	3.627321	-6.608332	-6.608332
O	-1.488959	-3.629402	-8.748270
O	1.488959	-6.608332	-8.748270
O	1.069181	-4.048899	-6.188836
O	6.605238	-3.629402	-6.608332
O	1.069181	-1.069969	-9.167766
O	4.047098	-1.069969	-6.188836
O	4.047098	-4.048899	-9.167766
Te	0.000000	-5.118867	-5.118867
Te	2.558140	-7.678301	-7.678301
Tl	-1.279070	-6.398584	-8.958018
Tl	3.837210	-3.839151	-6.398584
Tl	6.395349	-6.398584	-6.398584
Tl	1.279070	-3.839151	-8.958018
O	8.743600	-1.489465	-6.608332
O	3.627321	1.489465	-8.748270
O	6.605238	-1.489465	-8.748270
O	6.185460	1.069969	-6.188836
O	11.721517	1.489465	-6.608332
O	6.185460	4.048899	-9.167766
O	9.163378	4.048899	-6.188836
O	9.163378	1.069969	-9.167766
Te	5.116279	0.000000	-5.118867
Te	7.674419	-2.559434	-7.678301
Tl	3.837210	-1.279717	-8.958018
Tl	8.953489	1.279717	-6.398584
Tl	11.511629	-1.279717	-6.398584
Tl	6.395349	1.279717	-8.958018
