112

Be	0.000000	0.000000	0.000000
Be	1.934008	-1.934102	-1.934102
Li	-0.967004	-0.967056	-2.901158
Li	4.835020	-0.967056	-0.967056
Li	0.967004	0.967056	-2.901158
Li	2.901012	0.967056	-0.967056
O	0.916915	0.917133	-0.917133
O	-1.017093	1.016969	-2.851235
O	2.850923	-1.016969	-1.016969
O	1.017093	-1.016969	-2.851235
O	0.916915	2.951081	-2.951081
O	2.951101	2.951081	-0.917133
O	2.951101	0.917133	-2.951081
O	4.885109	1.016969	-1.016969
Be	3.868015	3.868210	0.000000
Be	5.802023	1.934108	-1.934102
Li	2.901011	2.901154	-2.901158
Li	8.703035	2.901154	-0.967056
Li	4.835019	4.835266	-2.901158
Li	6.769027	4.835266	-0.967056
O	4.784930	4.785343	-0.917133
O	2.850922	4.885179	-2.851235
O	6.718938	2.851241	-1.016969
O	4.885108	2.851241	-2.851235
O	4.784930	6.819292	-2.951081
O	6.819116	6.819292	-0.917133
O	6.819116	4.785343	-2.951081
O	8.753124	4.885179	-1.016969
Be	-3.868015	0.000000	-3.868210
Be	-1.934007	-1.934102	-5.802312
Li	-4.835019	-0.967056	-6.769368
Li	0.967005	-0.967056	-4.835266
Li	-2.901011	0.967056	-6.769368
Li	-0.967003	0.967056	-4.835266
O	-2.951100	0.917133	-4.785343
O	-4.885108	1.016969	-6.719445
O	-1.017092	-1.016969	-4.885179
O	-2.850922	-1.016969	-6.719445
O	-2.951100	2.951081	-6.819292
O	-0.916914	2.951081	-4.785343
O	-0.916914	0.917133	-6.819292
O	1.017094	1.016969	-4.885179
Be	0.000000	3.868210	-3.868210
Be	1.934008	1.934108	-5.802312
Li	-0.967004	2.901154	-6.769368
Li	4.835020	2.901154	-4.835266
Li	0.967004	4.835266	-6.769368
Li	2.901012	4.835266	-4.835266
O	0.916915	4.785343	-4.785343
O	-1.017093	4.885179	-6.719445
O	2.850923	2.851241	-4.885179
O	1.017093	2.851241	-6.719445
O	0.916915	6.819292	-6.819292
O	2.951101	6.819292	-4.785343
O	2.951101	4.785343	-6.819292
O	4.885109	4.885179	-4.885179
Be	3.868015	-3.868210	0.000000
Be	5.802023	-5.802312	-1.934102
Li	2.901011	-4.835266	-2.901158
Li	8.703035	-4.835266	-0.967056
Li	4.835019	-2.901154	-2.901158
Li	6.769027	-2.901154	-0.967056
O	4.784930	-2.951077	-0.917133
O	2.850922	-2.851241	-2.851235
O	6.718938	-4.885179	-1.016969
O	4.885108	-4.885179	-2.851235
O	4.784930	-0.917129	-2.951081
O	6.819116	-0.917129	-0.917133
O	6.819116	-2.951077	-2.951081
O	8.753124	-2.851241	-1.016969
Be	7.736030	0.000000	0.000000
Be	9.670038	-1.934102	-1.934102
Li	6.769026	-0.967056	-2.901158
Li	12.571050	-0.967056	-0.967056
Li	8.703034	0.967056	-2.901158
Li	10.637042	0.967056	-0.967056
O	8.652944	0.917133	-0.917133
O	6.718936	1.016969	-2.851235
O	10.586952	-1.016969	-1.016969
O	8.753123	-1.016969	-2.851235
O	8.652944	2.951081	-2.951081
O	10.687131	2.951081	-0.917133
O	10.687131	0.917133	-2.951081
O	12.621139	1.016969	-1.016969
Be	0.000000	-3.868210	-3.868210
Be	1.934008	-5.802312	-5.802312
Li	-0.967004	-4.835266	-6.769368
Li	4.835020	-4.835266	-4.835266
Li	0.967004	-2.901154	-6.769368
Li	2.901012	-2.901154	-4.835266
O	0.916915	-2.951077	-4.785343
O	-1.017093	-2.851241	-6.719445
O	2.850923	-4.885179	-4.885179
O	1.017093	-4.885179	-6.719445
O	0.916915	-0.917129	-6.819292
O	2.951101	-0.917129	-4.785343
O	2.951101	-2.951077	-6.819292
O	4.885109	-2.851241	-4.885179
Be	3.868015	0.000000	-3.868210
Be	5.802023	-1.934102	-5.802312
Li	2.901011	-0.967056	-6.769368
Li	8.703035	-0.967056	-4.835266
Li	4.835019	0.967056	-6.769368
Li	6.769027	0.967056	-4.835266
O	4.784930	0.917133	-4.785343
O	2.850922	1.016969	-6.719445
O	6.718938	-1.016969	-4.885179
O	4.885108	-1.016969	-6.719445
O	4.784930	2.951081	-6.819292
O	6.819116	2.951081	-4.785343
O	6.819116	0.917133	-6.819292
O	8.753124	1.016969	-4.885179
