40

O	2.209618	2.209618	0.000000
O	2.209618	0.000000	2.209618
O	0.000000	2.209618	2.209618
Sr	2.209618	2.209618	2.209618
Y	0.000000	0.000000	0.000000
O	2.209618	2.209618	4.419235
O	2.209618	0.000000	6.628853
O	0.000000	2.209618	6.628853
Sr	2.209618	2.209618	6.628853
Y	0.000000	0.000000	4.419235
O	2.209618	6.628853	0.000000
O	2.209618	4.419235	2.209618
O	0.000000	6.628853	2.209618
Sr	2.209618	6.628853	2.209618
Y	0.000000	4.419235	0.000000
O	2.209618	6.628853	4.419235
O	2.209618	4.419235	6.628853
O	0.000000	6.628853	6.628853
Sr	2.209618	6.628853	6.628853
Y	0.000000	4.419235	4.419235
O	6.628853	2.209618	0.000000
O	6.628853	0.000000	2.209618
O	4.419235	2.209618	2.209618
Sr	6.628853	2.209618	2.209618
Y	4.419235	0.000000	0.000000
O	6.628853	2.209618	4.419235
O	6.628853	0.000000	6.628853
O	4.419235	2.209618	6.628853
Sr	6.628853	2.209618	6.628853
Y	4.419235	0.000000	4.419235
O	6.628853	6.628853	0.000000
O	6.628853	4.419235	2.209618
O	4.419235	6.628853	2.209618
Sr	6.628853	6.628853	2.209618
Y	4.419235	4.419235	0.000000
O	6.628853	6.628853	4.419235
O	6.628853	4.419235	6.628853
O	4.419235	6.628853	6.628853
Sr	6.628853	6.628853	6.628853
Y	4.419235	4.419235	4.419235
