40

K	0.000000	0.000000	0.000000
Ag	2.096311	2.096311	2.096311
O	2.096311	2.096311	0.000000
O	2.096311	0.000000	2.096311
O	0.000000	2.096311	2.096311
K	0.000000	0.000000	4.192631
Ag	2.096311	2.096311	6.288942
O	2.096311	2.096311	4.192631
O	2.096311	0.000000	6.288942
O	0.000000	2.096311	6.288942
K	0.000000	4.192631	0.000000
Ag	2.096311	6.288942	2.096311
O	2.096311	6.288942	0.000000
O	2.096311	4.192631	2.096311
O	0.000000	6.288942	2.096311
K	0.000000	4.192631	4.192631
Ag	2.096311	6.288942	6.288942
O	2.096311	6.288942	4.192631
O	2.096311	4.192631	6.288942
O	0.000000	6.288942	6.288942
K	4.192631	0.000000	0.000000
Ag	6.288942	2.096311	2.096311
O	6.288942	2.096311	0.000000
O	6.288942	0.000000	2.096311
O	4.192631	2.096311	2.096311
K	4.192631	0.000000	4.192631
Ag	6.288942	2.096311	6.288942
O	6.288942	2.096311	4.192631
O	6.288942	0.000000	6.288942
O	4.192631	2.096311	6.288942
K	4.192631	4.192631	0.000000
Ag	6.288942	6.288942	2.096311
O	6.288942	6.288942	0.000000
O	6.288942	4.192631	2.096311
O	4.192631	6.288942	2.096311
K	4.192631	4.192631	4.192631
Ag	6.288942	6.288942	6.288942
O	6.288942	6.288942	4.192631
O	6.288942	4.192631	6.288942
O	4.192631	6.288942	6.288942
