112

Be	0.000000	0.000000	0.000000
Be	2.022068	-2.022717	-2.022717
O	2.942709	-1.101472	-1.101472
O	-1.101427	1.101472	-2.943962
O	1.101427	-1.101472	-2.943962
O	0.920641	0.921245	-0.921245
O	5.145563	1.101472	-1.101472
O	0.920641	3.124189	-3.124189
O	3.123495	3.124189	-0.921245
O	3.123495	0.921245	-3.124189
Re	-1.011034	-1.011359	-3.034076
Re	3.033102	1.011359	-1.011359
Re	5.055170	-1.011359	-1.011359
Re	1.011034	1.011359	-3.034076
Be	4.044136	4.045434	0.000000
Be	6.066204	2.022717	-2.022717
O	6.986845	2.943962	-1.101472
O	2.942709	5.146906	-2.943962
O	5.145563	2.943962	-2.943962
O	4.964777	4.966680	-0.921245
O	9.189699	5.146906	-1.101472
O	4.964777	7.169623	-3.124189
O	7.167631	7.169623	-0.921245
O	7.167631	4.966680	-3.124189
Re	3.033102	3.034076	-3.034076
Re	7.077238	5.056793	-1.011359
Re	9.099306	3.034076	-1.011359
Re	5.055170	5.056793	-3.034076
Be	-4.044136	0.000000	-4.045434
Be	-2.022068	-2.022717	-6.068151
O	-1.101427	-1.101472	-5.146906
O	-5.145563	1.101472	-6.989397
O	-2.942709	-1.101472	-6.989397
O	-3.123495	0.921245	-4.966680
O	1.101427	1.101472	-5.146906
O	-3.123495	3.124189	-7.169623
O	-0.920641	3.124189	-4.966680
O	-0.920641	0.921245	-7.169623
Re	-5.055170	-1.011359	-7.079510
Re	-1.011034	1.011359	-5.056793
Re	1.011034	-1.011359	-5.056793
Re	-3.033102	1.011359	-7.079510
Be	0.000000	4.045434	-4.045434
Be	2.022068	2.022717	-6.068151
O	2.942709	2.943962	-5.146906
O	-1.101427	5.146906	-6.989397
O	1.101427	2.943962	-6.989397
O	0.920641	4.966680	-4.966680
O	5.145563	5.146906	-5.146906
O	0.920641	7.169623	-7.169623
O	3.123495	7.169623	-4.966680
O	3.123495	4.966680	-7.169623
Re	-1.011034	3.034076	-7.079510
Re	3.033102	5.056793	-5.056793
Re	5.055170	3.034076	-5.056793
Re	1.011034	5.056793	-7.079510
Be	4.044136	-4.045434	0.000000
Be	6.066204	-6.068151	-2.022717
O	6.986845	-5.146906	-1.101472
O	2.942709	-2.943962	-2.943962
O	5.145563	-5.146906	-2.943962
O	4.964777	-3.124189	-0.921245
O	9.189699	-2.943962	-1.101472
O	4.964777	-0.921245	-3.124189
O	7.167631	-0.921245	-0.921245
O	7.167631	-3.124189	-3.124189
Re	3.033102	-5.056793	-3.034076
Re	7.077238	-3.034076	-1.011359
Re	9.099306	-5.056793	-1.011359
Re	5.055170	-3.034076	-3.034076
Be	8.088272	0.000000	0.000000
Be	10.110340	-2.022717	-2.022717
O	11.030981	-1.101472	-1.101472
O	6.986845	1.101472	-2.943962
O	9.189699	-1.101472	-2.943962
O	9.008913	0.921245	-0.921245
O	13.233835	1.101472	-1.101472
O	9.008913	3.124189	-3.124189
O	11.211767	3.124189	-0.921245
O	11.211767	0.921245	-3.124189
Re	7.077238	-1.011359	-3.034076
Re	11.121374	1.011359	-1.011359
Re	13.143442	-1.011359	-1.011359
Re	9.099306	1.011359	-3.034076
Be	0.000000	-4.045434	-4.045434
Be	2.022068	-6.068151	-6.068151
O	2.942709	-5.146906	-5.146906
O	-1.101427	-2.943962	-6.989397
O	1.101427	-5.146906	-6.989397
O	0.920641	-3.124189	-4.966680
O	5.145563	-2.943962	-5.146906
O	0.920641	-0.921245	-7.169623
O	3.123495	-0.921245	-4.966680
O	3.123495	-3.124189	-7.169623
Re	-1.011034	-5.056793	-7.079510
Re	3.033102	-3.034076	-5.056793
Re	5.055170	-5.056793	-5.056793
Re	1.011034	-3.034076	-7.079510
Be	4.044136	0.000000	-4.045434
Be	6.066204	-2.022717	-6.068151
O	6.986845	-1.101472	-5.146906
O	2.942709	1.101472	-6.989397
O	5.145563	-1.101472	-6.989397
O	4.964777	0.921245	-4.966680
O	9.189699	1.101472	-5.146906
O	4.964777	3.124189	-7.169623
O	7.167631	3.124189	-4.966680
O	7.167631	0.921245	-7.169623
Re	3.033102	-1.011359	-7.079510
Re	7.077238	1.011359	-5.056793
Re	9.099306	-1.011359	-5.056793
Re	5.055170	1.011359	-7.079510
