112

As	0.000000	0.000000	0.000000
As	2.545646	-2.549460	-2.549460
O	4.100679	-0.989420	-0.989420
O	-0.990613	0.989420	-4.109499
O	0.990613	-0.989420	-4.109499
O	1.555033	1.560040	-1.560040
O	6.081905	0.989420	-0.989420
O	1.555033	3.538880	-3.538880
O	3.536259	3.538880	-1.560040
O	3.536259	1.560040	-3.538880
Pa	-1.272823	-1.274730	-3.824189
Pa	3.818469	1.274730	-1.274730
Pa	6.364115	-1.274730	-1.274730
Pa	1.272823	1.274730	-3.824189
As	5.091292	5.098919	0.000000
As	7.636938	2.549460	-2.549460
O	9.191971	4.109499	-0.989420
O	4.100679	6.088339	-4.109499
O	6.081905	4.109499	-4.109499
O	6.646325	6.658959	-1.560040
O	11.173197	6.088339	-0.989420
O	6.646325	8.637799	-3.538880
O	8.627551	8.637799	-1.560040
O	8.627551	6.658959	-3.538880
Pa	3.818469	3.824189	-3.824189
Pa	8.909761	6.373649	-1.274730
Pa	11.455407	3.824189	-1.274730
Pa	6.364115	6.373649	-3.824189
As	-5.091292	0.000000	-5.098919
As	-2.545646	-2.549460	-7.648379
O	-0.990613	-0.989420	-6.088339
O	-6.081905	0.989420	-9.208418
O	-4.100679	-0.989420	-9.208418
O	-3.536259	1.560040	-6.658959
O	0.990613	0.989420	-6.088339
O	-3.536259	3.538880	-8.637799
O	-1.555033	3.538880	-6.658959
O	-1.555033	1.560040	-8.637799
Pa	-6.364115	-1.274730	-8.923108
Pa	-1.272823	1.274730	-6.373649
Pa	1.272823	-1.274730	-6.373649
Pa	-3.818469	1.274730	-8.923108
As	0.000000	5.098919	-5.098919
As	2.545646	2.549460	-7.648379
O	4.100679	4.109499	-6.088339
O	-0.990613	6.088339	-9.208418
O	0.990613	4.109499	-9.208418
O	1.555033	6.658959	-6.658959
O	6.081905	6.088339	-6.088339
O	1.555033	8.637799	-8.637799
O	3.536259	8.637799	-6.658959
O	3.536259	6.658959	-8.637799
Pa	-1.272823	3.824189	-8.923108
Pa	3.818469	6.373649	-6.373649
Pa	6.364115	3.824189	-6.373649
Pa	1.272823	6.373649	-8.923108
As	5.091292	-5.098919	0.000000
As	7.636938	-7.648379	-2.549460
O	9.191971	-6.088339	-0.989420
O	4.100679	-4.109499	-4.109499
O	6.081905	-6.088339	-4.109499
O	6.646325	-3.538880	-1.560040
O	11.173197	-4.109499	-0.989420
O	6.646325	-1.560040	-3.538880
O	8.627551	-1.560040	-1.560040
O	8.627551	-3.538880	-3.538880
Pa	3.818469	-6.373649	-3.824189
Pa	8.909761	-3.824189	-1.274730
Pa	11.455407	-6.373649	-1.274730
Pa	6.364115	-3.824189	-3.824189
As	10.182584	0.000000	0.000000
As	12.728230	-2.549460	-2.549460
O	14.283263	-0.989420	-0.989420
O	9.191971	0.989420	-4.109499
O	11.173197	-0.989420	-4.109499
O	11.737617	1.560040	-1.560040
O	16.264489	0.989420	-0.989420
O	11.737617	3.538880	-3.538880
O	13.718843	3.538880	-1.560040
O	13.718843	1.560040	-3.538880
Pa	8.909761	-1.274730	-3.824189
Pa	14.001053	1.274730	-1.274730
Pa	16.546699	-1.274730	-1.274730
Pa	11.455407	1.274730	-3.824189
As	0.000000	-5.098919	-5.098919
As	2.545646	-7.648379	-7.648379
O	4.100679	-6.088339	-6.088339
O	-0.990613	-4.109499	-9.208418
O	0.990613	-6.088339	-9.208418
O	1.555033	-3.538880	-6.658959
O	6.081905	-4.109499	-6.088339
O	1.555033	-1.560040	-8.637799
O	3.536259	-1.560040	-6.658959
O	3.536259	-3.538880	-8.637799
Pa	-1.272823	-6.373649	-8.923108
Pa	3.818469	-3.824189	-6.373649
Pa	6.364115	-6.373649	-6.373649
Pa	1.272823	-3.824189	-8.923108
As	5.091292	0.000000	-5.098919
As	7.636938	-2.549460	-7.648379
O	9.191971	-0.989420	-6.088339
O	4.100679	0.989420	-9.208418
O	6.081905	-0.989420	-9.208418
O	6.646325	1.560040	-6.658959
O	11.173197	0.989420	-6.088339
O	6.646325	3.538880	-8.637799
O	8.627551	3.538880	-6.658959
O	8.627551	1.560040	-8.637799
Pa	3.818469	-1.274730	-8.923108
Pa	8.909761	1.274730	-6.373649
Pa	11.455407	-1.274730	-6.373649
Pa	6.364115	1.274730	-8.923108
