40

K	1.999939	1.999939	1.999939
O	1.999939	0.000000	0.000000
O	0.000000	1.999939	0.000000
O	0.000000	0.000000	1.999939
Ta	0.000000	0.000000	0.000000
K	1.999939	1.999939	5.999816
O	1.999939	0.000000	3.999877
O	0.000000	1.999939	3.999877
O	0.000000	0.000000	5.999816
Ta	0.000000	0.000000	3.999877
K	1.999939	5.999816	1.999939
O	1.999939	3.999877	0.000000
O	0.000000	5.999816	0.000000
O	0.000000	3.999877	1.999939
Ta	0.000000	3.999877	0.000000
K	1.999939	5.999816	5.999816
O	1.999939	3.999877	3.999877
O	0.000000	5.999816	3.999877
O	0.000000	3.999877	5.999816
Ta	0.000000	3.999877	3.999877
K	5.999816	1.999939	1.999939
O	5.999816	0.000000	0.000000
O	3.999877	1.999939	0.000000
O	3.999877	0.000000	1.999939
Ta	3.999877	0.000000	0.000000
K	5.999816	1.999939	5.999816
O	5.999816	0.000000	3.999877
O	3.999877	1.999939	3.999877
O	3.999877	0.000000	5.999816
Ta	3.999877	0.000000	3.999877
K	5.999816	5.999816	1.999939
O	5.999816	3.999877	0.000000
O	3.999877	5.999816	0.000000
O	3.999877	3.999877	1.999939
Ta	3.999877	3.999877	0.000000
K	5.999816	5.999816	5.999816
O	5.999816	3.999877	3.999877
O	3.999877	5.999816	3.999877
O	3.999877	3.999877	5.999816
Ta	3.999877	3.999877	3.999877
