40

Ba	0.000000	0.000000	0.000000
O	0.000000	2.224892	2.224892
O	2.224892	0.000000	2.224892
O	2.224892	2.224892	0.000000
Y	2.224892	2.224892	2.224892
Ba	0.000000	0.000000	4.449785
O	0.000000	2.224892	6.674677
O	2.224892	0.000000	6.674677
O	2.224892	2.224892	4.449785
Y	2.224892	2.224892	6.674677
Ba	0.000000	4.449785	0.000000
O	0.000000	6.674677	2.224892
O	2.224892	4.449785	2.224892
O	2.224892	6.674677	0.000000
Y	2.224892	6.674677	2.224892
Ba	0.000000	4.449785	4.449785
O	0.000000	6.674677	6.674677
O	2.224892	4.449785	6.674677
O	2.224892	6.674677	4.449785
Y	2.224892	6.674677	6.674677
Ba	4.449785	0.000000	0.000000
O	4.449785	2.224892	2.224892
O	6.674677	0.000000	2.224892
O	6.674677	2.224892	0.000000
Y	6.674677	2.224892	2.224892
Ba	4.449785	0.000000	4.449785
O	4.449785	2.224892	6.674677
O	6.674677	0.000000	6.674677
O	6.674677	2.224892	4.449785
Y	6.674677	2.224892	6.674677
Ba	4.449785	4.449785	0.000000
O	4.449785	6.674677	2.224892
O	6.674677	4.449785	2.224892
O	6.674677	6.674677	0.000000
Y	6.674677	6.674677	2.224892
Ba	4.449785	4.449785	4.449785
O	4.449785	6.674677	6.674677
O	6.674677	4.449785	6.674677
O	6.674677	6.674677	4.449785
Y	6.674677	6.674677	6.674677
