40

Ba	2.348744	2.348744	2.348744
O	0.000000	2.348744	2.348744
O	2.348744	0.000000	2.348744
O	2.348744	2.348744	0.000000
Y	0.000000	0.000000	0.000000
Ba	2.348744	2.348744	7.046232
O	0.000000	2.348744	7.046232
O	2.348744	0.000000	7.046232
O	2.348744	2.348744	4.697488
Y	0.000000	0.000000	4.697488
Ba	2.348744	7.046232	2.348744
O	0.000000	7.046232	2.348744
O	2.348744	4.697488	2.348744
O	2.348744	7.046232	0.000000
Y	0.000000	4.697488	0.000000
Ba	2.348744	7.046232	7.046232
O	0.000000	7.046232	7.046232
O	2.348744	4.697488	7.046232
O	2.348744	7.046232	4.697488
Y	0.000000	4.697488	4.697488
Ba	7.046232	2.348744	2.348744
O	4.697488	2.348744	2.348744
O	7.046232	0.000000	2.348744
O	7.046232	2.348744	0.000000
Y	4.697488	0.000000	0.000000
Ba	7.046232	2.348744	7.046232
O	4.697488	2.348744	7.046232
O	7.046232	0.000000	7.046232
O	7.046232	2.348744	4.697488
Y	4.697488	0.000000	4.697488
Ba	7.046232	7.046232	2.348744
O	4.697488	7.046232	2.348744
O	7.046232	4.697488	2.348744
O	7.046232	7.046232	0.000000
Y	4.697488	4.697488	0.000000
Ba	7.046232	7.046232	7.046232
O	4.697488	7.046232	7.046232
O	7.046232	4.697488	7.046232
O	7.046232	7.046232	4.697488
Y	4.697488	4.697488	4.697488
