40

Ba	2.318697	2.318697	2.318697
O	2.318697	2.318697	0.000000
O	0.000000	2.318697	2.318697
O	2.318697	0.000000	2.318697
Y	0.000000	0.000000	0.000000
Ba	2.318697	2.318697	6.956081
O	2.318697	2.318697	4.637384
O	0.000000	2.318697	6.956081
O	2.318697	0.000000	6.956081
Y	0.000000	0.000000	4.637384
Ba	2.318697	6.956081	2.318697
O	2.318697	6.956081	0.000000
O	0.000000	6.956081	2.318697
O	2.318697	4.637384	2.318697
Y	0.000000	4.637384	0.000000
Ba	2.318697	6.956081	6.956081
O	2.318697	6.956081	4.637384
O	0.000000	6.956081	6.956081
O	2.318697	4.637384	6.956081
Y	0.000000	4.637384	4.637384
Ba	6.956081	2.318697	2.318697
O	6.956081	2.318697	0.000000
O	4.637384	2.318697	2.318697
O	6.956081	0.000000	2.318697
Y	4.637384	0.000000	0.000000
Ba	6.956081	2.318697	6.956081
O	6.956081	2.318697	4.637384
O	4.637384	2.318697	6.956081
O	6.956081	0.000000	6.956081
Y	4.637384	0.000000	4.637384
Ba	6.956081	6.956081	2.318697
O	6.956081	6.956081	0.000000
O	4.637384	6.956081	2.318697
O	6.956081	4.637384	2.318697
Y	4.637384	4.637384	0.000000
Ba	6.956081	6.956081	6.956081
O	6.956081	6.956081	4.637384
O	4.637384	6.956081	6.956081
O	6.956081	4.637384	6.956081
Y	4.637384	4.637384	4.637384
