112

O	1.705578	1.206026	5.902294
O	5.112114	3.614810	8.854441
O	4.261057	1.207659	7.380368
O	2.558944	3.614810	7.380368
O	4.258747	1.206026	4.428221
O	1.705578	1.206026	2.954148
O	5.112114	3.614810	5.906295
O	2.556634	3.613177	4.428221
Mg	0.852211	2.410418	1.476074
Mg	2.556634	0.000000	1.476074
Mg	0.000000	0.000000	2.952147
Mg	0.000000	0.000000	0.000000
Ge	2.556634	1.807814	4.428221
Ge	4.261057	3.013023	7.380368
O	1.705578	1.206026	11.806588
O	5.112114	3.614810	14.758735
O	4.261057	1.207659	13.284662
O	2.558944	3.614810	13.284662
O	4.258747	1.206026	10.332515
O	1.705578	1.206026	8.858442
O	5.112114	3.614810	11.810589
O	2.556634	3.613177	10.332515
Mg	0.852211	2.410418	7.380368
Mg	2.556634	0.000000	7.380368
Mg	0.000000	0.000000	8.856441
Mg	0.000000	0.000000	5.904294
Ge	2.556634	1.807814	10.332515
Ge	4.261057	3.013023	13.284662
O	3.410001	6.026862	8.854441
O	6.816537	8.435647	11.806588
O	5.965480	6.028495	10.332515
O	4.263367	8.435647	10.332515
O	5.963170	6.026862	7.380368
O	3.410001	6.026862	5.906295
O	6.816537	8.435647	8.858442
O	4.261057	8.434013	7.380368
Mg	2.556634	7.231254	4.428221
Mg	4.261057	4.820836	4.428221
Mg	1.704423	4.820836	5.904294
Mg	1.704423	4.820836	2.952147
Ge	4.261057	6.628650	7.380368
Ge	5.965480	7.833859	10.332515
O	3.410001	6.026862	14.758735
O	6.816537	8.435647	17.710883
O	5.965480	6.028495	16.236809
O	4.263367	8.435647	16.236809
O	5.963170	6.026862	13.284662
O	3.410001	6.026862	11.810589
O	6.816537	8.435647	14.762736
O	4.261057	8.434013	13.284662
Mg	2.556634	7.231254	10.332515
Mg	4.261057	4.820836	10.332515
Mg	1.704423	4.820836	11.808589
Mg	1.704423	4.820836	8.856441
Ge	4.261057	6.628650	13.284662
Ge	5.965480	7.833859	16.236809
O	6.818847	1.206026	8.854441
O	10.225383	3.614810	11.806588
O	9.374326	1.207659	10.332515
O	7.672213	3.614810	10.332515
O	9.372016	1.206026	7.380368
O	6.818847	1.206026	5.906295
O	10.225383	3.614810	8.858442
O	7.669903	3.613177	7.380368
Mg	5.965480	2.410418	4.428221
Mg	7.669903	0.000000	4.428221
Mg	5.113269	0.000000	5.904294
Mg	5.113269	0.000000	2.952147
Ge	7.669903	1.807814	7.380368
Ge	9.374326	3.013023	10.332515
O	6.818847	1.206026	14.758735
O	10.225383	3.614810	17.710883
O	9.374326	1.207659	16.236809
O	7.672213	3.614810	16.236809
O	9.372016	1.206026	13.284662
O	6.818847	1.206026	11.810589
O	10.225383	3.614810	14.762736
O	7.669903	3.613177	13.284662
Mg	5.965480	2.410418	10.332515
Mg	7.669903	0.000000	10.332515
Mg	5.113269	0.000000	11.808589
Mg	5.113269	0.000000	8.856441
Ge	7.669903	1.807814	13.284662
Ge	9.374326	3.013023	16.236809
O	8.523270	6.026862	11.806588
O	11.929806	8.435647	14.758735
O	11.078749	6.028495	13.284662
O	9.376636	8.435647	13.284662
O	11.076439	6.026862	10.332515
O	8.523270	6.026862	8.858442
O	11.929806	8.435647	11.810589
O	9.374326	8.434013	10.332515
Mg	7.669903	7.231254	7.380368
Mg	9.374326	4.820836	7.380368
Mg	6.817692	4.820836	8.856441
Mg	6.817692	4.820836	5.904294
Ge	9.374326	6.628650	10.332515
Ge	11.078749	7.833859	13.284662
O	8.523270	6.026862	17.710882
O	11.929806	8.435647	20.663030
O	11.078749	6.028495	19.188957
O	9.376636	8.435647	19.188957
O	11.076439	6.026862	16.236809
O	8.523270	6.026862	14.762736
O	11.929806	8.435647	17.714883
O	9.374326	8.434013	16.236809
Mg	7.669903	7.231254	13.284662
Mg	9.374326	4.820836	13.284662
Mg	6.817692	4.820836	14.760736
Mg	6.817692	4.820836	11.808589
Ge	9.374326	6.628650	16.236809
Ge	11.078749	7.833859	19.188956
