40

Co	0.000000	0.000000	0.000000
Mn	1.851910	1.851910	1.851910
O	1.851910	0.000000	1.851910
O	0.000000	1.851910	1.851910
O	1.851910	1.851910	0.000000
Co	0.000000	0.000000	3.703820
Mn	1.851910	1.851910	5.555730
O	1.851910	0.000000	5.555730
O	0.000000	1.851910	5.555730
O	1.851910	1.851910	3.703820
Co	0.000000	3.703820	0.000000
Mn	1.851910	5.555730	1.851910
O	1.851910	3.703820	1.851910
O	0.000000	5.555730	1.851910
O	1.851910	5.555730	0.000000
Co	0.000000	3.703820	3.703820
Mn	1.851910	5.555730	5.555730
O	1.851910	3.703820	5.555730
O	0.000000	5.555730	5.555730
O	1.851910	5.555730	3.703820
Co	3.703820	0.000000	0.000000
Mn	5.555730	1.851910	1.851910
O	5.555730	0.000000	1.851910
O	3.703820	1.851910	1.851910
O	5.555730	1.851910	0.000000
Co	3.703820	0.000000	3.703820
Mn	5.555730	1.851910	5.555730
O	5.555730	0.000000	5.555730
O	3.703820	1.851910	5.555730
O	5.555730	1.851910	3.703820
Co	3.703820	3.703820	0.000000
Mn	5.555730	5.555730	1.851910
O	5.555730	3.703820	1.851910
O	3.703820	5.555730	1.851910
O	5.555730	5.555730	0.000000
Co	3.703820	3.703820	3.703820
Mn	5.555730	5.555730	5.555730
O	5.555730	3.703820	5.555730
O	3.703820	5.555730	5.555730
O	5.555730	5.555730	3.703820
