40

Al	0.000000	0.000000	0.000000
F	1.809739	1.809739	1.809739
O	0.000000	1.809739	1.809739
O	1.809739	0.000000	1.809739
O	1.809739	1.809739	0.000000
Al	0.000000	0.000000	3.619477
F	1.809739	1.809739	5.429216
O	0.000000	1.809739	5.429216
O	1.809739	0.000000	5.429216
O	1.809739	1.809739	3.619477
Al	0.000000	3.619477	0.000000
F	1.809739	5.429216	1.809739
O	0.000000	5.429216	1.809739
O	1.809739	3.619477	1.809739
O	1.809739	5.429216	0.000000
Al	0.000000	3.619477	3.619477
F	1.809739	5.429216	5.429216
O	0.000000	5.429216	5.429216
O	1.809739	3.619477	5.429216
O	1.809739	5.429216	3.619477
Al	3.619477	0.000000	0.000000
F	5.429216	1.809739	1.809739
O	3.619477	1.809739	1.809739
O	5.429216	0.000000	1.809739
O	5.429216	1.809739	0.000000
Al	3.619477	0.000000	3.619477
F	5.429216	1.809739	5.429216
O	3.619477	1.809739	5.429216
O	5.429216	0.000000	5.429216
O	5.429216	1.809739	3.619477
Al	3.619477	3.619477	0.000000
F	5.429216	5.429216	1.809739
O	3.619477	5.429216	1.809739
O	5.429216	3.619477	1.809739
O	5.429216	5.429216	0.000000
Al	3.619477	3.619477	3.619477
F	5.429216	5.429216	5.429216
O	3.619477	5.429216	5.429216
O	5.429216	3.619477	5.429216
O	5.429216	5.429216	3.619477
