40

Cu	0.000000	0.000000	0.000000
O	0.000000	1.952660	1.952660
O	1.952660	0.000000	1.952660
O	1.952660	1.952660	0.000000
Sb	1.952660	1.952660	1.952660
Cu	0.000000	0.000000	3.905325
O	0.000000	1.952660	5.857985
O	1.952660	0.000000	5.857985
O	1.952660	1.952660	3.905325
Sb	1.952660	1.952660	5.857985
Cu	0.000000	3.905325	0.000000
O	0.000000	5.857985	1.952660
O	1.952660	3.905325	1.952660
O	1.952660	5.857985	0.000000
Sb	1.952660	5.857985	1.952660
Cu	0.000000	3.905325	3.905325
O	0.000000	5.857985	5.857985
O	1.952660	3.905325	5.857985
O	1.952660	5.857985	3.905325
Sb	1.952660	5.857985	5.857985
Cu	3.905325	0.000000	0.000000
O	3.905325	1.952660	1.952660
O	5.857985	0.000000	1.952660
O	5.857985	1.952660	0.000000
Sb	5.857985	1.952660	1.952660
Cu	3.905325	0.000000	3.905325
O	3.905325	1.952660	5.857985
O	5.857985	0.000000	5.857985
O	5.857985	1.952660	3.905325
Sb	5.857985	1.952660	5.857985
Cu	3.905325	3.905325	0.000000
O	3.905325	5.857985	1.952660
O	5.857985	3.905325	1.952660
O	5.857985	5.857985	0.000000
Sb	5.857985	5.857985	1.952660
Cu	3.905325	3.905325	3.905325
O	3.905325	5.857985	5.857985
O	5.857985	3.905325	5.857985
O	5.857985	5.857985	3.905325
Sb	5.857985	5.857985	5.857985
