40

O	0.000000	1.976510	1.976510
O	1.976510	0.000000	1.976510
O	1.976510	1.976510	0.000000
Ru	1.976510	1.976510	1.976510
Tc	0.000000	0.000000	0.000000
O	0.000000	1.976510	5.929531
O	1.976510	0.000000	5.929531
O	1.976510	1.976510	3.953021
Ru	1.976510	1.976510	5.929531
Tc	0.000000	0.000000	3.953021
O	0.000000	5.929531	1.976510
O	1.976510	3.953021	1.976510
O	1.976510	5.929531	0.000000
Ru	1.976510	5.929531	1.976510
Tc	0.000000	3.953021	0.000000
O	0.000000	5.929531	5.929531
O	1.976510	3.953021	5.929531
O	1.976510	5.929531	3.953021
Ru	1.976510	5.929531	5.929531
Tc	0.000000	3.953021	3.953021
O	3.953021	1.976510	1.976510
O	5.929531	0.000000	1.976510
O	5.929531	1.976510	0.000000
Ru	5.929531	1.976510	1.976510
Tc	3.953021	0.000000	0.000000
O	3.953021	1.976510	5.929531
O	5.929531	0.000000	5.929531
O	5.929531	1.976510	3.953021
Ru	5.929531	1.976510	5.929531
Tc	3.953021	0.000000	3.953021
O	3.953021	5.929531	1.976510
O	5.929531	3.953021	1.976510
O	5.929531	5.929531	0.000000
Ru	5.929531	5.929531	1.976510
Tc	3.953021	3.953021	0.000000
O	3.953021	5.929531	5.929531
O	5.929531	3.953021	5.929531
O	5.929531	5.929531	3.953021
Ru	5.929531	5.929531	5.929531
Tc	3.953021	3.953021	3.953021
