40

Co	0.000000	0.000000	0.000000
Hg	2.071498	2.071498	2.071498
O	0.000000	2.071498	2.071498
O	2.071498	0.000000	2.071498
O	2.071498	2.071498	0.000000
Co	0.000000	0.000000	4.142996
Hg	2.071498	2.071498	6.214493
O	0.000000	2.071498	6.214493
O	2.071498	0.000000	6.214493
O	2.071498	2.071498	4.142996
Co	0.000000	4.142996	0.000000
Hg	2.071498	6.214493	2.071498
O	0.000000	6.214493	2.071498
O	2.071498	4.142996	2.071498
O	2.071498	6.214493	0.000000
Co	0.000000	4.142996	4.142996
Hg	2.071498	6.214493	6.214493
O	0.000000	6.214493	6.214493
O	2.071498	4.142996	6.214493
O	2.071498	6.214493	4.142996
Co	4.142996	0.000000	0.000000
Hg	6.214493	2.071498	2.071498
O	4.142996	2.071498	2.071498
O	6.214493	0.000000	2.071498
O	6.214493	2.071498	0.000000
Co	4.142996	0.000000	4.142996
Hg	6.214493	2.071498	6.214493
O	4.142996	2.071498	6.214493
O	6.214493	0.000000	6.214493
O	6.214493	2.071498	4.142996
Co	4.142996	4.142996	0.000000
Hg	6.214493	6.214493	2.071498
O	4.142996	6.214493	2.071498
O	6.214493	4.142996	2.071498
O	6.214493	6.214493	0.000000
Co	4.142996	4.142996	4.142996
Hg	6.214493	6.214493	6.214493
O	4.142996	6.214493	6.214493
O	6.214493	4.142996	6.214493
O	6.214493	6.214493	4.142996
