40

Bi	0.000000	0.000000	0.000000
Li	1.894703	1.894703	1.894703
O	1.894703	1.894703	0.000000
O	1.894703	0.000000	1.894703
O	0.000000	1.894703	1.894703
Bi	0.000000	0.000000	3.789405
Li	1.894703	1.894703	5.684108
O	1.894703	1.894703	3.789405
O	1.894703	0.000000	5.684108
O	0.000000	1.894703	5.684108
Bi	0.000000	3.789405	0.000000
Li	1.894703	5.684108	1.894703
O	1.894703	5.684108	0.000000
O	1.894703	3.789405	1.894703
O	0.000000	5.684108	1.894703
Bi	0.000000	3.789405	3.789405
Li	1.894703	5.684108	5.684108
O	1.894703	5.684108	3.789405
O	1.894703	3.789405	5.684108
O	0.000000	5.684108	5.684108
Bi	3.789405	0.000000	0.000000
Li	5.684108	1.894703	1.894703
O	5.684108	1.894703	0.000000
O	5.684108	0.000000	1.894703
O	3.789405	1.894703	1.894703
Bi	3.789405	0.000000	3.789405
Li	5.684108	1.894703	5.684108
O	5.684108	1.894703	3.789405
O	5.684108	0.000000	5.684108
O	3.789405	1.894703	5.684108
Bi	3.789405	3.789405	0.000000
Li	5.684108	5.684108	1.894703
O	5.684108	5.684108	0.000000
O	5.684108	3.789405	1.894703
O	3.789405	5.684108	1.894703
Bi	3.789405	3.789405	3.789405
Li	5.684108	5.684108	5.684108
O	5.684108	5.684108	3.789405
O	5.684108	3.789405	5.684108
O	3.789405	5.684108	5.684108
