40

Cr	1.904600	1.904600	1.904600
Er	0.000000	0.000000	0.000000
O	1.904600	0.000000	1.904600
O	0.000000	1.904600	1.904600
O	1.904600	1.904600	0.000000
Cr	1.904600	1.904600	5.713804
Er	0.000000	0.000000	3.809204
O	1.904600	0.000000	5.713804
O	0.000000	1.904600	5.713804
O	1.904600	1.904600	3.809204
Cr	1.904600	5.713804	1.904600
Er	0.000000	3.809204	0.000000
O	1.904600	3.809204	1.904600
O	0.000000	5.713804	1.904600
O	1.904600	5.713804	0.000000
Cr	1.904600	5.713804	5.713804
Er	0.000000	3.809204	3.809204
O	1.904600	3.809204	5.713804
O	0.000000	5.713804	5.713804
O	1.904600	5.713804	3.809204
Cr	5.713804	1.904600	1.904600
Er	3.809204	0.000000	0.000000
O	5.713804	0.000000	1.904600
O	3.809204	1.904600	1.904600
O	5.713804	1.904600	0.000000
Cr	5.713804	1.904600	5.713804
Er	3.809204	0.000000	3.809204
O	5.713804	0.000000	5.713804
O	3.809204	1.904600	5.713804
O	5.713804	1.904600	3.809204
Cr	5.713804	5.713804	1.904600
Er	3.809204	3.809204	0.000000
O	5.713804	3.809204	1.904600
O	3.809204	5.713804	1.904600
O	5.713804	5.713804	0.000000
Cr	5.713804	5.713804	5.713804
Er	3.809204	3.809204	3.809204
O	5.713804	3.809204	5.713804
O	3.809204	5.713804	5.713804
O	5.713804	5.713804	3.809204
