40

O	1.938210	1.938210	0.000000
O	0.000000	1.938210	1.938210
O	1.938210	0.000000	1.938210
Sm_3	0.000000	0.000000	0.000000
V	1.938210	1.938210	1.938210
O	1.938210	1.938210	3.876426
O	0.000000	1.938210	5.814636
O	1.938210	0.000000	5.814636
Sm_3	0.000000	0.000000	3.876426
V	1.938210	1.938210	5.814636
O	1.938210	5.814636	0.000000
O	0.000000	5.814636	1.938210
O	1.938210	3.876426	1.938210
Sm_3	0.000000	3.876426	0.000000
V	1.938210	5.814636	1.938210
O	1.938210	5.814636	3.876426
O	0.000000	5.814636	5.814636
O	1.938210	3.876426	5.814636
Sm_3	0.000000	3.876426	3.876426
V	1.938210	5.814636	5.814636
O	5.814636	1.938210	0.000000
O	3.876426	1.938210	1.938210
O	5.814636	0.000000	1.938210
Sm_3	3.876426	0.000000	0.000000
V	5.814636	1.938210	1.938210
O	5.814636	1.938210	3.876426
O	3.876426	1.938210	5.814636
O	5.814636	0.000000	5.814636
Sm_3	3.876426	0.000000	3.876426
V	5.814636	1.938210	5.814636
O	5.814636	5.814636	0.000000
O	3.876426	5.814636	1.938210
O	5.814636	3.876426	1.938210
Sm_3	3.876426	3.876426	0.000000
V	5.814636	5.814636	1.938210
O	5.814636	5.814636	3.876426
O	3.876426	5.814636	5.814636
O	5.814636	3.876426	5.814636
Sm_3	3.876426	3.876426	3.876426
V	5.814636	5.814636	5.814636
