40

Co	1.867290	1.867290	1.867290
O	1.867290	1.867290	0.000000
O	0.000000	1.867290	1.867290
O	1.867290	0.000000	1.867290
Sb	0.000000	0.000000	0.000000
Co	1.867290	1.867290	5.601884
O	1.867290	1.867290	3.734594
O	0.000000	1.867290	5.601884
O	1.867290	0.000000	5.601884
Sb	0.000000	0.000000	3.734594
Co	1.867290	5.601884	1.867290
O	1.867290	5.601884	0.000000
O	0.000000	5.601884	1.867290
O	1.867290	3.734594	1.867290
Sb	0.000000	3.734594	0.000000
Co	1.867290	5.601884	5.601884
O	1.867290	5.601884	3.734594
O	0.000000	5.601884	5.601884
O	1.867290	3.734594	5.601884
Sb	0.000000	3.734594	3.734594
Co	5.601884	1.867290	1.867290
O	5.601884	1.867290	0.000000
O	3.734594	1.867290	1.867290
O	5.601884	0.000000	1.867290
Sb	3.734594	0.000000	0.000000
Co	5.601884	1.867290	5.601884
O	5.601884	1.867290	3.734594
O	3.734594	1.867290	5.601884
O	5.601884	0.000000	5.601884
Sb	3.734594	0.000000	3.734594
Co	5.601884	5.601884	1.867290
O	5.601884	5.601884	0.000000
O	3.734594	5.601884	1.867290
O	5.601884	3.734594	1.867290
Sb	3.734594	3.734594	0.000000
Co	5.601884	5.601884	5.601884
O	5.601884	5.601884	3.734594
O	3.734594	5.601884	5.601884
O	5.601884	3.734594	5.601884
Sb	3.734594	3.734594	3.734594
