40

Co	1.866754	1.866754	1.866754
O	1.866754	1.866754	0.000000
O	1.866754	0.000000	1.866754
O	0.000000	1.866754	1.866754
Sb	0.000000	0.000000	0.000000
Co	1.866754	1.866754	5.600259
O	1.866754	1.866754	3.733505
O	1.866754	0.000000	5.600259
O	0.000000	1.866754	5.600259
Sb	0.000000	0.000000	3.733505
Co	1.866754	5.600259	1.866754
O	1.866754	5.600259	0.000000
O	1.866754	3.733505	1.866754
O	0.000000	5.600259	1.866754
Sb	0.000000	3.733505	0.000000
Co	1.866754	5.600259	5.600259
O	1.866754	5.600259	3.733505
O	1.866754	3.733505	5.600259
O	0.000000	5.600259	5.600259
Sb	0.000000	3.733505	3.733505
Co	5.600259	1.866754	1.866754
O	5.600259	1.866754	0.000000
O	5.600259	0.000000	1.866754
O	3.733505	1.866754	1.866754
Sb	3.733505	0.000000	0.000000
Co	5.600259	1.866754	5.600259
O	5.600259	1.866754	3.733505
O	5.600259	0.000000	5.600259
O	3.733505	1.866754	5.600259
Sb	3.733505	0.000000	3.733505
Co	5.600259	5.600259	1.866754
O	5.600259	5.600259	0.000000
O	5.600259	3.733505	1.866754
O	3.733505	5.600259	1.866754
Sb	3.733505	3.733505	0.000000
Co	5.600259	5.600259	5.600259
O	5.600259	5.600259	3.733505
O	5.600259	3.733505	5.600259
O	3.733505	5.600259	5.600259
Sb	3.733505	3.733505	3.733505
