112

Cs	0.000000	0.000000	0.000000
Cs	2.613541	-2.614038	-2.614038
O	-1.040897	1.040465	-4.187600
O	4.186176	-1.040465	-1.040465
O	1.040897	-1.040465	-4.187600
O	1.572644	1.573572	-1.573572
O	6.267970	1.040465	-1.040465
O	1.572644	3.654503	-3.654503
O	3.654429	3.654503	-1.573572
O	3.654429	1.573572	-3.654503
Pm	-1.306766	-1.307019	-3.921056
Pm	6.533839	-1.307019	-1.307019
Pm	1.306766	1.307019	-3.921056
Pm	3.920307	1.307019	-1.307019
Cs	5.227074	5.228070	0.000000
Cs	7.840616	2.614033	-2.614038
O	4.186177	6.268536	-4.187600
O	9.413250	4.187605	-1.040465
O	6.267971	4.187605	-4.187600
O	6.799719	6.801643	-1.573572
O	11.495044	6.268536	-1.040465
O	6.799719	8.882573	-3.654503
O	8.881503	8.882573	-1.573572
O	8.881503	6.801643	-3.654503
Pm	3.920309	3.921051	-3.921056
Pm	11.760913	3.921051	-1.307019
Pm	6.533840	6.535089	-3.921056
Pm	9.147381	6.535089	-1.307019
Cs	-5.227074	0.000000	-5.228070
Cs	-2.613533	-2.614038	-7.842108
O	-6.267971	1.040465	-9.415670
O	-1.040899	-1.040465	-6.268536
O	-4.186177	-1.040465	-9.415670
O	-3.654430	1.573572	-6.801643
O	1.040896	1.040465	-6.268536
O	-3.654430	3.654503	-8.882573
O	-1.572646	3.654503	-6.801643
O	-1.572646	1.573572	-8.882573
Pm	-6.533840	-1.307019	-9.149127
Pm	1.306764	-1.307019	-6.535089
Pm	-3.920309	1.307019	-9.149127
Pm	-1.306767	1.307019	-6.535089
Cs	0.000000	5.228070	-5.228070
Cs	2.613541	2.614033	-7.842108
O	-1.040897	6.268536	-9.415670
O	4.186176	4.187605	-6.268536
O	1.040897	4.187605	-9.415670
O	1.572644	6.801643	-6.801643
O	6.267970	6.268536	-6.268536
O	1.572644	8.882573	-8.882573
O	3.654429	8.882573	-6.801643
O	3.654429	6.801643	-8.882573
Pm	-1.306766	3.921051	-9.149127
Pm	6.533839	3.921051	-6.535089
Pm	1.306766	6.535089	-9.149127
Pm	3.920307	6.535089	-6.535089
Cs	5.227074	-5.228070	0.000000
Cs	7.840616	-7.842108	-2.614038
O	4.186177	-4.187605	-4.187600
O	9.413250	-6.268536	-1.040465
O	6.267971	-6.268536	-4.187600
O	6.799719	-3.654498	-1.573572
O	11.495044	-4.187605	-1.040465
O	6.799719	-1.573567	-3.654503
O	8.881503	-1.573567	-1.573572
O	8.881503	-3.654498	-3.654503
Pm	3.920309	-6.535089	-3.921056
Pm	11.760913	-6.535089	-1.307019
Pm	6.533840	-3.921051	-3.921056
Pm	9.147381	-3.921051	-1.307019
Cs	10.454149	0.000000	0.000000
Cs	13.067690	-2.614038	-2.614038
O	9.413252	1.040465	-4.187600
O	14.640324	-1.040465	-1.040465
O	11.495046	-1.040465	-4.187600
O	12.026793	1.573572	-1.573572
O	16.722119	1.040465	-1.040465
O	12.026793	3.654503	-3.654503
O	14.108577	3.654503	-1.573572
O	14.108577	1.573572	-3.654503
Pm	9.147383	-1.307019	-3.921056
Pm	16.987987	-1.307019	-1.307019
Pm	11.760914	1.307019	-3.921056
Pm	14.374456	1.307019	-1.307019
Cs	0.000000	-5.228070	-5.228070
Cs	2.613541	-7.842108	-7.842108
O	-1.040897	-4.187605	-9.415670
O	4.186176	-6.268536	-6.268536
O	1.040897	-6.268536	-9.415670
O	1.572644	-3.654498	-6.801643
O	6.267970	-4.187605	-6.268536
O	1.572644	-1.573567	-8.882573
O	3.654429	-1.573567	-6.801643
O	3.654429	-3.654498	-8.882573
Pm	-1.306766	-6.535089	-9.149127
Pm	6.533839	-6.535089	-6.535089
Pm	1.306766	-3.921051	-9.149127
Pm	3.920307	-3.921051	-6.535089
Cs	5.227074	0.000000	-5.228070
Cs	7.840616	-2.614038	-7.842108
O	4.186177	1.040465	-9.415670
O	9.413250	-1.040465	-6.268536
O	6.267971	-1.040465	-9.415670
O	6.799719	1.573572	-6.801643
O	11.495044	1.040465	-6.268536
O	6.799719	3.654503	-8.882573
O	8.881503	3.654503	-6.801643
O	8.881503	1.573572	-8.882573
Pm	3.920309	-1.307019	-9.149127
Pm	11.760913	-1.307019	-6.535089
Pm	6.533840	1.307019	-9.149127
Pm	9.147381	1.307019	-6.535089
