112

Cd	7.651980	7.651980	7.651980
Cd	1.093140	1.093140	1.093140
Ga	2.186280	4.372550	2.186280
Ga	4.372550	2.186280	2.186280
Ga	2.186280	2.186280	4.372550
Ga	4.372550	4.372550	4.372550
O	6.400620	4.530760	4.530760
O	4.530760	6.400620	4.530760
O	4.530760	4.530760	6.400620
O	6.400630	6.400630	6.400630
O	4.214350	2.344480	4.214350
O	2.344480	4.214350	4.214350
O	4.214350	4.214350	2.344480
O	2.344480	2.344480	2.344480
Cd	12.024529	12.024529	7.651990
Cd	5.465689	5.465689	1.093150
Ga	6.558829	8.745099	2.186290
Ga	8.745099	6.558829	2.186290
Ga	6.558829	6.558829	4.372560
Ga	8.745099	8.745099	4.372560
O	10.773169	8.903309	4.530770
O	8.903309	10.773169	4.530770
O	8.903309	8.903309	6.400630
O	10.773179	10.773179	6.400640
O	8.586899	6.717029	4.214360
O	6.717029	8.586899	4.214360
O	8.586899	8.586899	2.344490
O	6.717029	6.717029	2.344490
Cd	12.024529	7.651990	12.024529
Cd	5.465689	1.093150	5.465689
Ga	6.558829	4.372560	6.558829
Ga	8.745099	2.186290	6.558829
Ga	6.558829	2.186290	8.745099
Ga	8.745099	4.372560	8.745099
O	10.773169	4.530770	8.903309
O	8.903309	6.400630	8.903309
O	8.903309	4.530770	10.773169
O	10.773179	6.400640	10.773179
O	8.586899	2.344490	8.586899
O	6.717029	4.214360	8.586899
O	8.586899	4.214360	6.717029
O	6.717029	2.344490	6.717029
Cd	16.397077	12.024539	12.024539
Cd	9.838237	5.465699	5.465699
Ga	10.931377	8.745109	6.558839
Ga	13.117647	6.558839	6.558839
Ga	10.931377	6.558839	8.745109
Ga	13.117647	8.745109	8.745109
O	15.145717	8.903319	8.903319
O	13.275857	10.773179	8.903319
O	13.275857	8.903319	10.773179
O	15.145727	10.773189	10.773189
O	12.959447	6.717039	8.586909
O	11.089577	8.586909	8.586909
O	12.959447	8.586909	6.717039
O	11.089577	6.717039	6.717039
Cd	7.651990	12.024529	12.024529
Cd	1.093150	5.465689	5.465689
Ga	2.186290	8.745099	6.558829
Ga	4.372560	6.558829	6.558829
Ga	2.186290	6.558829	8.745099
Ga	4.372560	8.745099	8.745099
O	6.400630	8.903309	8.903309
O	4.530770	10.773169	8.903309
O	4.530770	8.903309	10.773169
O	6.400640	10.773179	10.773179
O	4.214360	6.717029	8.586899
O	2.344490	8.586899	8.586899
O	4.214360	8.586899	6.717029
O	2.344490	6.717029	6.717029
Cd	12.024539	16.397077	12.024539
Cd	5.465699	9.838237	5.465699
Ga	6.558839	13.117647	6.558839
Ga	8.745109	10.931377	6.558839
Ga	6.558839	10.931377	8.745109
Ga	8.745109	13.117647	8.745109
O	10.773179	13.275857	8.903319
O	8.903319	15.145717	8.903319
O	8.903319	13.275857	10.773179
O	10.773189	15.145727	10.773189
O	8.586909	11.089577	8.586909
O	6.717039	12.959447	8.586909
O	8.586909	12.959447	6.717039
O	6.717039	11.089577	6.717039
Cd	12.024539	12.024539	16.397077
Cd	5.465699	5.465699	9.838237
Ga	6.558839	8.745109	10.931377
Ga	8.745109	6.558839	10.931377
Ga	6.558839	6.558839	13.117647
Ga	8.745109	8.745109	13.117647
O	10.773179	8.903319	13.275857
O	8.903319	10.773179	13.275857
O	8.903319	8.903319	15.145717
O	10.773189	10.773189	15.145727
O	8.586909	6.717039	12.959447
O	6.717039	8.586909	12.959447
O	8.586909	8.586909	11.089577
O	6.717039	6.717039	11.089577
Cd	16.397088	16.397088	16.397088
Cd	9.838248	9.838248	9.838248
Ga	10.931388	13.117658	10.931388
Ga	13.117658	10.931388	10.931388
Ga	10.931388	10.931388	13.117658
Ga	13.117658	13.117658	13.117658
O	15.145728	13.275868	13.275868
O	13.275868	15.145728	13.275868
O	13.275868	13.275868	15.145728
O	15.145738	15.145738	15.145738
O	12.959458	11.089588	12.959458
O	11.089588	12.959458	12.959458
O	12.959458	12.959458	11.089588
O	11.089588	11.089588	11.089588
