112

Mo	0.000000	0.000000	0.000000
Mo	2.418803	-2.419759	-2.419759
O	-1.196642	1.197841	-3.641677
O	3.640973	-1.197841	-1.197841
O	1.196642	-1.197841	-3.641677
O	1.222171	1.221918	-1.221918
O	6.034247	1.197841	-1.197841
O	1.222171	3.617600	-3.617600
O	3.615444	3.617600	-1.221918
O	3.615444	1.221918	-3.617600
Pa	-1.209406	-1.209884	-3.629643
Pa	6.047011	-1.209884	-1.209884
Pa	3.628209	1.209884	-1.209884
Pa	1.209406	1.209884	-3.629643
Mo	4.837611	4.839518	0.000000
Mo	7.256413	2.419760	-2.419759
O	3.640969	6.037359	-3.641677
O	8.478584	3.641677	-1.197841
O	6.034253	3.641677	-3.641677
O	6.059782	6.061436	-1.221918
O	10.871858	6.037359	-1.197841
O	6.059782	8.457118	-3.617600
O	8.453055	8.457118	-1.221918
O	8.453055	6.061436	-3.617600
Pa	3.628204	3.629634	-3.629643
Pa	10.884622	3.629634	-1.209884
Pa	8.465820	6.049403	-1.209884
Pa	6.047017	6.049403	-3.629643
Mo	-4.837611	0.000000	-4.839518
Mo	-2.418808	-2.419759	-7.259277
O	-6.034253	1.197841	-8.481195
O	-1.196637	-1.197841	-6.037359
O	-3.640969	-1.197841	-8.481195
O	-3.615440	1.221918	-6.061436
O	1.196636	1.197841	-6.037359
O	-3.615440	3.617600	-8.457118
O	-1.222166	3.617600	-6.061436
O	-1.222166	1.221918	-8.457118
Pa	-6.047017	-1.209884	-8.469162
Pa	1.209401	-1.209884	-6.049403
Pa	-1.209402	1.209884	-6.049403
Pa	-3.628204	1.209884	-8.469162
Mo	0.000000	4.839518	-4.839518
Mo	2.418803	2.419760	-7.259277
O	-1.196642	6.037359	-8.481195
O	3.640973	3.641677	-6.037359
O	1.196642	3.641677	-8.481195
O	1.222171	6.061436	-6.061436
O	6.034247	6.037359	-6.037359
O	1.222171	8.457118	-8.457118
O	3.615444	8.457118	-6.061436
O	3.615444	6.061436	-8.457118
Pa	-1.209406	3.629634	-8.469162
Pa	6.047011	3.629634	-6.049403
Pa	3.628209	6.049403	-6.049403
Pa	1.209406	6.049403	-8.469162
Mo	4.837611	-4.839518	0.000000
Mo	7.256413	-7.259277	-2.419759
O	3.640969	-3.641677	-3.641677
O	8.478584	-6.037359	-1.197841
O	6.034253	-6.037359	-3.641677
O	6.059782	-3.617600	-1.221918
O	10.871858	-3.641677	-1.197841
O	6.059782	-1.221919	-3.617600
O	8.453055	-1.221919	-1.221918
O	8.453055	-3.617600	-3.617600
Pa	3.628204	-6.049403	-3.629643
Pa	10.884622	-6.049403	-1.209884
Pa	8.465820	-3.629634	-1.209884
Pa	6.047017	-3.629634	-3.629643
Mo	9.675222	0.000000	0.000000
Mo	12.094024	-2.419759	-2.419759
O	8.478580	1.197841	-3.641677
O	13.316195	-1.197841	-1.197841
O	10.871863	-1.197841	-3.641677
O	10.897392	1.221918	-1.221918
O	15.709469	1.197841	-1.197841
O	10.897392	3.617600	-3.617600
O	13.290666	3.617600	-1.221918
O	13.290666	1.221918	-3.617600
Pa	8.465815	-1.209884	-3.629643
Pa	15.722233	-1.209884	-1.209884
Pa	13.303430	1.209884	-1.209884
Pa	10.884628	1.209884	-3.629643
Mo	0.000000	-4.839518	-4.839518
Mo	2.418803	-7.259277	-7.259277
O	-1.196642	-3.641677	-8.481195
O	3.640973	-6.037359	-6.037359
O	1.196642	-6.037359	-8.481195
O	1.222171	-3.617600	-6.061436
O	6.034247	-3.641677	-6.037359
O	1.222171	-1.221919	-8.457118
O	3.615444	-1.221919	-6.061436
O	3.615444	-3.617600	-8.457118
Pa	-1.209406	-6.049403	-8.469162
Pa	6.047011	-6.049403	-6.049403
Pa	3.628209	-3.629634	-6.049403
Pa	1.209406	-3.629634	-8.469162
Mo	4.837611	0.000000	-4.839518
Mo	7.256413	-2.419759	-7.259277
O	3.640969	1.197841	-8.481195
O	8.478584	-1.197841	-6.037359
O	6.034253	-1.197841	-8.481195
O	6.059782	1.221918	-6.061436
O	10.871858	1.197841	-6.037359
O	6.059782	3.617600	-8.457118
O	8.453055	3.617600	-6.061436
O	8.453055	1.221918	-8.457118
Pa	3.628204	-1.209884	-8.469162
Pa	10.884622	-1.209884	-6.049403
Pa	8.465820	1.209884	-6.049403
Pa	6.047017	1.209884	-8.469162
