40

B	0.000000	0.000000	0.000000
Co	1.854449	1.854449	1.854449
O	1.854449	1.854449	0.000000
O	1.854449	0.000000	1.854449
O	0.000000	1.854449	1.854449
B	0.000000	0.000000	3.708898
Co	1.854449	1.854449	5.563347
O	1.854449	1.854449	3.708898
O	1.854449	0.000000	5.563347
O	0.000000	1.854449	5.563347
B	0.000000	3.708898	0.000000
Co	1.854449	5.563347	1.854449
O	1.854449	5.563347	0.000000
O	1.854449	3.708898	1.854449
O	0.000000	5.563347	1.854449
B	0.000000	3.708898	3.708898
Co	1.854449	5.563347	5.563347
O	1.854449	5.563347	3.708898
O	1.854449	3.708898	5.563347
O	0.000000	5.563347	5.563347
B	3.708898	0.000000	0.000000
Co	5.563347	1.854449	1.854449
O	5.563347	1.854449	0.000000
O	5.563347	0.000000	1.854449
O	3.708898	1.854449	1.854449
B	3.708898	0.000000	3.708898
Co	5.563347	1.854449	5.563347
O	5.563347	1.854449	3.708898
O	5.563347	0.000000	5.563347
O	3.708898	1.854449	5.563347
B	3.708898	3.708898	0.000000
Co	5.563347	5.563347	1.854449
O	5.563347	5.563347	0.000000
O	5.563347	3.708898	1.854449
O	3.708898	5.563347	1.854449
B	3.708898	3.708898	3.708898
Co	5.563347	5.563347	5.563347
O	5.563347	5.563347	3.708898
O	5.563347	3.708898	5.563347
O	3.708898	5.563347	5.563347
