40

Al	0.000000	0.000000	0.000000
C	1.679515	1.679515	1.679515
O	0.000000	1.679515	1.679515
O	1.679515	0.000000	1.679515
O	1.679515	1.679515	0.000000
Al	0.000000	0.000000	3.359030
C	1.679515	1.679515	5.038545
O	0.000000	1.679515	5.038545
O	1.679515	0.000000	5.038545
O	1.679515	1.679515	3.359030
Al	0.000000	3.359030	0.000000
C	1.679515	5.038545	1.679515
O	0.000000	5.038545	1.679515
O	1.679515	3.359030	1.679515
O	1.679515	5.038545	0.000000
Al	0.000000	3.359030	3.359030
C	1.679515	5.038545	5.038545
O	0.000000	5.038545	5.038545
O	1.679515	3.359030	5.038545
O	1.679515	5.038545	3.359030
Al	3.359030	0.000000	0.000000
C	5.038545	1.679515	1.679515
O	3.359030	1.679515	1.679515
O	5.038545	0.000000	1.679515
O	5.038545	1.679515	0.000000
Al	3.359030	0.000000	3.359030
C	5.038545	1.679515	5.038545
O	3.359030	1.679515	5.038545
O	5.038545	0.000000	5.038545
O	5.038545	1.679515	3.359030
Al	3.359030	3.359030	0.000000
C	5.038545	5.038545	1.679515
O	3.359030	5.038545	1.679515
O	5.038545	3.359030	1.679515
O	5.038545	5.038545	0.000000
Al	3.359030	3.359030	3.359030
C	5.038545	5.038545	5.038545
O	3.359030	5.038545	5.038545
O	5.038545	3.359030	5.038545
O	5.038545	5.038545	3.359030
