40

Ag	0.000000	0.000000	0.000000
O	0.000000	1.870386	1.870386
O	1.870386	0.000000	1.870386
O	1.870386	1.870386	0.000000
S	1.870386	1.870386	1.870386
Ag	0.000000	0.000000	3.740773
O	0.000000	1.870386	5.611159
O	1.870386	0.000000	5.611159
O	1.870386	1.870386	3.740773
S	1.870386	1.870386	5.611159
Ag	0.000000	3.740773	0.000000
O	0.000000	5.611159	1.870386
O	1.870386	3.740773	1.870386
O	1.870386	5.611159	0.000000
S	1.870386	5.611159	1.870386
Ag	0.000000	3.740773	3.740773
O	0.000000	5.611159	5.611159
O	1.870386	3.740773	5.611159
O	1.870386	5.611159	3.740773
S	1.870386	5.611159	5.611159
Ag	3.740773	0.000000	0.000000
O	3.740773	1.870386	1.870386
O	5.611159	0.000000	1.870386
O	5.611159	1.870386	0.000000
S	5.611159	1.870386	1.870386
Ag	3.740773	0.000000	3.740773
O	3.740773	1.870386	5.611159
O	5.611159	0.000000	5.611159
O	5.611159	1.870386	3.740773
S	5.611159	1.870386	5.611159
Ag	3.740773	3.740773	0.000000
O	3.740773	5.611159	1.870386
O	5.611159	3.740773	1.870386
O	5.611159	5.611159	0.000000
S	5.611159	5.611159	1.870386
Ag	3.740773	3.740773	3.740773
O	3.740773	5.611159	5.611159
O	5.611159	3.740773	5.611159
O	5.611159	5.611159	3.740773
S	5.611159	5.611159	5.611159
