40

Nb	2.015412	2.015412	2.015412
O	0.000000	2.015412	2.015412
O	2.015412	0.000000	2.015412
O	2.015412	2.015412	0.000000
W	0.000000	0.000000	0.000000
Nb	2.015412	2.015412	6.046236
O	0.000000	2.015412	6.046236
O	2.015412	0.000000	6.046236
O	2.015412	2.015412	4.030824
W	0.000000	0.000000	4.030824
Nb	2.015412	6.046236	2.015412
O	0.000000	6.046236	2.015412
O	2.015412	4.030824	2.015412
O	2.015412	6.046236	0.000000
W	0.000000	4.030824	0.000000
Nb	2.015412	6.046236	6.046236
O	0.000000	6.046236	6.046236
O	2.015412	4.030824	6.046236
O	2.015412	6.046236	4.030824
W	0.000000	4.030824	4.030824
Nb	6.046236	2.015412	2.015412
O	4.030824	2.015412	2.015412
O	6.046236	0.000000	2.015412
O	6.046236	2.015412	0.000000
W	4.030824	0.000000	0.000000
Nb	6.046236	2.015412	6.046236
O	4.030824	2.015412	6.046236
O	6.046236	0.000000	6.046236
O	6.046236	2.015412	4.030824
W	4.030824	0.000000	4.030824
Nb	6.046236	6.046236	2.015412
O	4.030824	6.046236	2.015412
O	6.046236	4.030824	2.015412
O	6.046236	6.046236	0.000000
W	4.030824	4.030824	0.000000
Nb	6.046236	6.046236	6.046236
O	4.030824	6.046236	6.046236
O	6.046236	4.030824	6.046236
O	6.046236	6.046236	4.030824
W	4.030824	4.030824	4.030824
