40

Nb	2.019065	2.019065	2.019065
O	2.019065	2.019065	0.000000
O	2.019065	0.000000	2.019065
O	0.000000	2.019065	2.019065
W	0.000000	0.000000	0.000000
Nb	2.019065	2.019065	6.057196
O	2.019065	2.019065	4.038131
O	2.019065	0.000000	6.057196
O	0.000000	2.019065	6.057196
W	0.000000	0.000000	4.038131
Nb	2.019065	6.057196	2.019065
O	2.019065	6.057196	0.000000
O	2.019065	4.038131	2.019065
O	0.000000	6.057196	2.019065
W	0.000000	4.038131	0.000000
Nb	2.019065	6.057196	6.057196
O	2.019065	6.057196	4.038131
O	2.019065	4.038131	6.057196
O	0.000000	6.057196	6.057196
W	0.000000	4.038131	4.038131
Nb	6.057196	2.019065	2.019065
O	6.057196	2.019065	0.000000
O	6.057196	0.000000	2.019065
O	4.038131	2.019065	2.019065
W	4.038131	0.000000	0.000000
Nb	6.057196	2.019065	6.057196
O	6.057196	2.019065	4.038131
O	6.057196	0.000000	6.057196
O	4.038131	2.019065	6.057196
W	4.038131	0.000000	4.038131
Nb	6.057196	6.057196	2.019065
O	6.057196	6.057196	0.000000
O	6.057196	4.038131	2.019065
O	4.038131	6.057196	2.019065
W	4.038131	4.038131	0.000000
Nb	6.057196	6.057196	6.057196
O	6.057196	6.057196	4.038131
O	6.057196	4.038131	6.057196
O	4.038131	6.057196	6.057196
W	4.038131	4.038131	4.038131
