40

Be	1.749649	1.749649	1.749649
O	1.749649	1.749649	0.000000
O	0.000000	1.749649	1.749649
O	1.749649	0.000000	1.749649
Yb	0.000000	0.000000	0.000000
Be	1.749649	1.749649	5.248954
O	1.749649	1.749649	3.499305
O	0.000000	1.749649	5.248954
O	1.749649	0.000000	5.248954
Yb	0.000000	0.000000	3.499305
Be	1.749649	5.248954	1.749649
O	1.749649	5.248954	0.000000
O	0.000000	5.248954	1.749649
O	1.749649	3.499305	1.749649
Yb	0.000000	3.499305	0.000000
Be	1.749649	5.248954	5.248954
O	1.749649	5.248954	3.499305
O	0.000000	5.248954	5.248954
O	1.749649	3.499305	5.248954
Yb	0.000000	3.499305	3.499305
Be	5.248954	1.749649	1.749649
O	5.248954	1.749649	0.000000
O	3.499305	1.749649	1.749649
O	5.248954	0.000000	1.749649
Yb	3.499305	0.000000	0.000000
Be	5.248954	1.749649	5.248954
O	5.248954	1.749649	3.499305
O	3.499305	1.749649	5.248954
O	5.248954	0.000000	5.248954
Yb	3.499305	0.000000	3.499305
Be	5.248954	5.248954	1.749649
O	5.248954	5.248954	0.000000
O	3.499305	5.248954	1.749649
O	5.248954	3.499305	1.749649
Yb	3.499305	3.499305	0.000000
Be	5.248954	5.248954	5.248954
O	5.248954	5.248954	3.499305
O	3.499305	5.248954	5.248954
O	5.248954	3.499305	5.248954
Yb	3.499305	3.499305	3.499305
