40

Ba	2.024847	2.024847	2.024847
Mo	0.000000	0.000000	0.000000
O	2.024847	-0.015000	0.000000
O	0.000000	2.024847	0.000000
O	0.000000	0.000000	2.024847
Ba	2.024847	2.024847	6.074540
Mo	0.000000	0.000000	4.049694
O	2.024847	-0.015000	4.049694
O	0.000000	2.024847	4.049694
O	0.000000	0.000000	6.074540
Ba	2.024847	6.074540	2.024847
Mo	0.000000	4.049694	0.000000
O	2.024847	4.034694	0.000000
O	0.000000	6.074540	0.000000
O	0.000000	4.049694	2.024847
Ba	2.024847	6.074540	6.074540
Mo	0.000000	4.049694	4.049694
O	2.024847	4.034694	4.049694
O	0.000000	6.074540	4.049694
O	0.000000	4.049694	6.074540
Ba	6.074540	2.024847	2.024847
Mo	4.049694	0.000000	0.000000
O	6.074540	-0.015000	0.000000
O	4.049694	2.024847	0.000000
O	4.049694	0.000000	2.024847
Ba	6.074540	2.024847	6.074540
Mo	4.049694	0.000000	4.049694
O	6.074540	-0.015000	4.049694
O	4.049694	2.024847	4.049694
O	4.049694	0.000000	6.074540
Ba	6.074540	6.074540	2.024847
Mo	4.049694	4.049694	0.000000
O	6.074540	4.034694	0.000000
O	4.049694	6.074540	0.000000
O	4.049694	4.049694	2.024847
Ba	6.074540	6.074540	6.074540
Mo	4.049694	4.049694	4.049694
O	6.074540	4.034694	4.049694
O	4.049694	6.074540	4.049694
O	4.049694	4.049694	6.074540
