40

Ca	2.103140	2.103140	2.103140
O	2.103140	2.103140	0.000000
O	2.103140	0.000000	2.103140
O	0.000000	2.103140	2.103140
Zn	0.000000	0.000000	0.000000
Ca	2.103140	2.103140	6.309411
O	2.103140	2.103140	4.206271
O	2.103140	0.000000	6.309411
O	0.000000	2.103140	6.309411
Zn	0.000000	0.000000	4.206271
Ca	2.103140	6.309411	2.103140
O	2.103140	6.309411	0.000000
O	2.103140	4.206271	2.103140
O	0.000000	6.309411	2.103140
Zn	0.000000	4.206271	0.000000
Ca	2.103140	6.309411	6.309411
O	2.103140	6.309411	4.206271
O	2.103140	4.206271	6.309411
O	0.000000	6.309411	6.309411
Zn	0.000000	4.206271	4.206271
Ca	6.309411	2.103140	2.103140
O	6.309411	2.103140	0.000000
O	6.309411	0.000000	2.103140
O	4.206271	2.103140	2.103140
Zn	4.206271	0.000000	0.000000
Ca	6.309411	2.103140	6.309411
O	6.309411	2.103140	4.206271
O	6.309411	0.000000	6.309411
O	4.206271	2.103140	6.309411
Zn	4.206271	0.000000	4.206271
Ca	6.309411	6.309411	2.103140
O	6.309411	6.309411	0.000000
O	6.309411	4.206271	2.103140
O	4.206271	6.309411	2.103140
Zn	4.206271	4.206271	0.000000
Ca	6.309411	6.309411	6.309411
O	6.309411	6.309411	4.206271
O	6.309411	4.206271	6.309411
O	4.206271	6.309411	6.309411
Zn	4.206271	4.206271	4.206271
