40

C	1.753440	1.753440	1.753440
O	0.000000	1.753440	1.753440
O	1.753440	0.000000	1.753440
O	1.753440	1.753440	0.000000
Ta	0.000000	0.000000	0.000000
C	1.753440	1.753440	5.260321
O	0.000000	1.753440	5.260321
O	1.753440	0.000000	5.260321
O	1.753440	1.753440	3.506880
Ta	0.000000	0.000000	3.506880
C	1.753440	5.260321	1.753440
O	0.000000	5.260321	1.753440
O	1.753440	3.506880	1.753440
O	1.753440	5.260321	0.000000
Ta	0.000000	3.506880	0.000000
C	1.753440	5.260321	5.260321
O	0.000000	5.260321	5.260321
O	1.753440	3.506880	5.260321
O	1.753440	5.260321	3.506880
Ta	0.000000	3.506880	3.506880
C	5.260321	1.753440	1.753440
O	3.506880	1.753440	1.753440
O	5.260321	0.000000	1.753440
O	5.260321	1.753440	0.000000
Ta	3.506880	0.000000	0.000000
C	5.260321	1.753440	5.260321
O	3.506880	1.753440	5.260321
O	5.260321	0.000000	5.260321
O	5.260321	1.753440	3.506880
Ta	3.506880	0.000000	3.506880
C	5.260321	5.260321	1.753440
O	3.506880	5.260321	1.753440
O	5.260321	3.506880	1.753440
O	5.260321	5.260321	0.000000
Ta	3.506880	3.506880	0.000000
C	5.260321	5.260321	5.260321
O	3.506880	5.260321	5.260321
O	5.260321	3.506880	5.260321
O	5.260321	5.260321	3.506880
Ta	3.506880	3.506880	3.506880
