40

C	0.000000	0.000000	0.000000
O	0.000000	1.984916	1.984916
O	1.984916	0.000000	1.984916
O	1.984916	1.984916	0.000000
Ta	1.984916	1.984916	1.984916
C	0.000000	0.000000	3.969832
O	0.000000	1.984916	5.954748
O	1.984916	0.000000	5.954748
O	1.984916	1.984916	3.969832
Ta	1.984916	1.984916	5.954748
C	0.000000	3.969832	0.000000
O	0.000000	5.954748	1.984916
O	1.984916	3.969832	1.984916
O	1.984916	5.954748	0.000000
Ta	1.984916	5.954748	1.984916
C	0.000000	3.969832	3.969832
O	0.000000	5.954748	5.954748
O	1.984916	3.969832	5.954748
O	1.984916	5.954748	3.969832
Ta	1.984916	5.954748	5.954748
C	3.969832	0.000000	0.000000
O	3.969832	1.984916	1.984916
O	5.954748	0.000000	1.984916
O	5.954748	1.984916	0.000000
Ta	5.954748	1.984916	1.984916
C	3.969832	0.000000	3.969832
O	3.969832	1.984916	5.954748
O	5.954748	0.000000	5.954748
O	5.954748	1.984916	3.969832
Ta	5.954748	1.984916	5.954748
C	3.969832	3.969832	0.000000
O	3.969832	5.954748	1.984916
O	5.954748	3.969832	1.984916
O	5.954748	5.954748	0.000000
Ta	5.954748	5.954748	1.984916
C	3.969832	3.969832	3.969832
O	3.969832	5.954748	5.954748
O	5.954748	3.969832	5.954748
O	5.954748	5.954748	3.969832
Ta	5.954748	5.954748	5.954748
