112

O	3.311488	-1.041238	-1.041238
O	-1.041588	1.041238	-3.313247
O	1.041588	-1.041238	-3.313247
O	1.134950	1.136005	-1.136005
O	5.394664	1.041238	-1.041238
O	1.134950	3.218481	-3.218481
O	3.218126	3.218481	-1.136005
O	3.218126	1.136005	-3.218481
Re	0.000000	0.000000	0.000000
Re	2.176538	-2.177243	-2.177243
V	-1.088269	-1.088621	-3.265864
V	3.264807	1.088621	-1.088621
V	5.441345	-1.088621	-1.088621
V	1.088269	1.088621	-3.265864
O	7.664564	3.313247	-1.041238
O	3.311488	5.395723	-3.313247
O	5.394664	3.313247	-3.313247
O	5.488026	5.490490	-1.136005
O	9.747740	5.395723	-1.041238
O	5.488026	7.572966	-3.218481
O	7.571202	7.572966	-1.136005
O	7.571202	5.490490	-3.218481
Re	4.353076	4.354485	0.000000
Re	6.529614	2.177243	-2.177243
V	3.264807	3.265864	-3.265864
V	7.617883	5.443107	-1.088621
V	9.794421	3.265864	-1.088621
V	5.441345	5.443107	-3.265864
O	-1.041588	-1.041238	-5.395723
O	-5.394664	1.041238	-7.667733
O	-3.311488	-1.041238	-7.667733
O	-3.218126	1.136005	-5.490490
O	1.041588	1.041238	-5.395723
O	-3.218126	3.218481	-7.572966
O	-1.134950	3.218481	-5.490490
O	-1.134950	1.136005	-7.572966
Re	-4.353076	0.000000	-4.354485
Re	-2.176538	-2.177243	-6.531728
V	-5.441345	-1.088621	-7.620349
V	-1.088269	1.088621	-5.443107
V	1.088269	-1.088621	-5.443107
V	-3.264807	1.088621	-7.620349
O	3.311488	3.313247	-5.395723
O	-1.041588	5.395723	-7.667733
O	1.041588	3.313247	-7.667733
O	1.134950	5.490490	-5.490490
O	5.394664	5.395723	-5.395723
O	1.134950	7.572966	-7.572966
O	3.218126	7.572966	-5.490490
O	3.218126	5.490490	-7.572966
Re	0.000000	4.354485	-4.354485
Re	2.176538	2.177243	-6.531728
V	-1.088269	3.265864	-7.620349
V	3.264807	5.443107	-5.443107
V	5.441345	3.265864	-5.443107
V	1.088269	5.443107	-7.620349
O	7.664564	-5.395723	-1.041238
O	3.311488	-3.313247	-3.313247
O	5.394664	-5.395723	-3.313247
O	5.488026	-3.218481	-1.136005
O	9.747740	-3.313247	-1.041238
O	5.488026	-1.136005	-3.218481
O	7.571202	-1.136005	-1.136005
O	7.571202	-3.218481	-3.218481
Re	4.353076	-4.354485	0.000000
Re	6.529614	-6.531728	-2.177243
V	3.264807	-5.443107	-3.265864
V	7.617883	-3.265864	-1.088621
V	9.794421	-5.443107	-1.088621
V	5.441345	-3.265864	-3.265864
O	12.017640	-1.041238	-1.041238
O	7.664564	1.041238	-3.313247
O	9.747740	-1.041238	-3.313247
O	9.841102	1.136005	-1.136005
O	14.100816	1.041238	-1.041238
O	9.841102	3.218481	-3.218481
O	11.924278	3.218481	-1.136005
O	11.924278	1.136005	-3.218481
Re	8.706152	0.000000	0.000000
Re	10.882690	-2.177243	-2.177243
V	7.617883	-1.088621	-3.265864
V	11.970959	1.088621	-1.088621
V	14.147497	-1.088621	-1.088621
V	9.794421	1.088621	-3.265864
O	3.311488	-5.395723	-5.395723
O	-1.041588	-3.313247	-7.667733
O	1.041588	-5.395723	-7.667733
O	1.134950	-3.218481	-5.490490
O	5.394664	-3.313247	-5.395723
O	1.134950	-1.136005	-7.572966
O	3.218126	-1.136005	-5.490490
O	3.218126	-3.218481	-7.572966
Re	0.000000	-4.354485	-4.354485
Re	2.176538	-6.531728	-6.531728
V	-1.088269	-5.443107	-7.620349
V	3.264807	-3.265864	-5.443107
V	5.441345	-5.443107	-5.443107
V	1.088269	-3.265864	-7.620349
O	7.664564	-1.041238	-5.395723
O	3.311488	1.041238	-7.667733
O	5.394664	-1.041238	-7.667733
O	5.488026	1.136005	-5.490490
O	9.747740	1.041238	-5.395723
O	5.488026	3.218481	-7.572966
O	7.571202	3.218481	-5.490490
O	7.571202	1.136005	-7.572966
Re	4.353076	0.000000	-4.354485
Re	6.529614	-2.177243	-6.531728
V	3.264807	-1.088621	-7.620349
V	7.617883	1.088621	-5.443107
V	9.794421	-1.088621	-5.443107
V	5.441345	1.088621	-7.620349
