40

Ga	1.954050	1.954050	1.954050
O	1.954050	1.954050	0.000000
O	1.954050	0.000000	1.954050
O	0.000000	1.954050	1.954050
Tl	0.000000	0.000000	0.000000
Ga	1.954050	1.954050	5.862150
O	1.954050	1.954050	3.908100
O	1.954050	0.000000	5.862150
O	0.000000	1.954050	5.862150
Tl	0.000000	0.000000	3.908100
Ga	1.954050	5.862150	1.954050
O	1.954050	5.862150	0.000000
O	1.954050	3.908100	1.954050
O	0.000000	5.862150	1.954050
Tl	0.000000	3.908100	0.000000
Ga	1.954050	5.862150	5.862150
O	1.954050	5.862150	3.908100
O	1.954050	3.908100	5.862150
O	0.000000	5.862150	5.862150
Tl	0.000000	3.908100	3.908100
Ga	5.862150	1.954050	1.954050
O	5.862150	1.954050	0.000000
O	5.862150	0.000000	1.954050
O	3.908100	1.954050	1.954050
Tl	3.908100	0.000000	0.000000
Ga	5.862150	1.954050	5.862150
O	5.862150	1.954050	3.908100
O	5.862150	0.000000	5.862150
O	3.908100	1.954050	5.862150
Tl	3.908100	0.000000	3.908100
Ga	5.862150	5.862150	1.954050
O	5.862150	5.862150	0.000000
O	5.862150	3.908100	1.954050
O	3.908100	5.862150	1.954050
Tl	3.908100	3.908100	0.000000
Ga	5.862150	5.862150	5.862150
O	5.862150	5.862150	3.908100
O	5.862150	3.908100	5.862150
O	3.908100	5.862150	5.862150
Tl	3.908100	3.908100	3.908100
