40

B	1.665150	1.665150	1.665150
O	1.665150	1.665150	0.000000
O	0.000000	1.665150	1.665150
O	1.665150	0.000000	1.665150
V	0.000000	0.000000	0.000000
B	1.665150	1.665150	4.995456
O	1.665150	1.665150	3.330306
O	0.000000	1.665150	4.995456
O	1.665150	0.000000	4.995456
V	0.000000	0.000000	3.330306
B	1.665150	4.995456	1.665150
O	1.665150	4.995456	0.000000
O	0.000000	4.995456	1.665150
O	1.665150	3.330306	1.665150
V	0.000000	3.330306	0.000000
B	1.665150	4.995456	4.995456
O	1.665150	4.995456	3.330306
O	0.000000	4.995456	4.995456
O	1.665150	3.330306	4.995456
V	0.000000	3.330306	3.330306
B	4.995456	1.665150	1.665150
O	4.995456	1.665150	0.000000
O	3.330306	1.665150	1.665150
O	4.995456	0.000000	1.665150
V	3.330306	0.000000	0.000000
B	4.995456	1.665150	4.995456
O	4.995456	1.665150	3.330306
O	3.330306	1.665150	4.995456
O	4.995456	0.000000	4.995456
V	3.330306	0.000000	3.330306
B	4.995456	4.995456	1.665150
O	4.995456	4.995456	0.000000
O	3.330306	4.995456	1.665150
O	4.995456	3.330306	1.665150
V	3.330306	3.330306	0.000000
B	4.995456	4.995456	4.995456
O	4.995456	4.995456	3.330306
O	3.330306	4.995456	4.995456
O	4.995456	3.330306	4.995456
V	3.330306	3.330306	3.330306
