40

F	0.000000	2.243984	2.243984
F	2.243984	0.000000	2.243984
F	2.243984	2.243984	0.000000
I	2.243984	2.243984	2.243984
O	0.000000	0.000000	0.000000
F	0.000000	2.243984	6.731951
F	2.243984	0.000000	6.731951
F	2.243984	2.243984	4.487967
I	2.243984	2.243984	6.731951
O	0.000000	0.000000	4.487967
F	0.000000	6.731951	2.243984
F	2.243984	4.487967	2.243984
F	2.243984	6.731951	0.000000
I	2.243984	6.731951	2.243984
O	0.000000	4.487967	0.000000
F	0.000000	6.731951	6.731951
F	2.243984	4.487967	6.731951
F	2.243984	6.731951	4.487967
I	2.243984	6.731951	6.731951
O	0.000000	4.487967	4.487967
F	4.487967	2.243984	2.243984
F	6.731951	0.000000	2.243984
F	6.731951	2.243984	0.000000
I	6.731951	2.243984	2.243984
O	4.487967	0.000000	0.000000
F	4.487967	2.243984	6.731951
F	6.731951	0.000000	6.731951
F	6.731951	2.243984	4.487967
I	6.731951	2.243984	6.731951
O	4.487967	0.000000	4.487967
F	4.487967	6.731951	2.243984
F	6.731951	4.487967	2.243984
F	6.731951	6.731951	0.000000
I	6.731951	6.731951	2.243984
O	4.487967	4.487967	0.000000
F	4.487967	6.731951	6.731951
F	6.731951	4.487967	6.731951
F	6.731951	6.731951	4.487967
I	6.731951	6.731951	6.731951
O	4.487967	4.487967	4.487967
