40

Al	0.000000	0.000000	0.000000
La	1.889328	1.889328	1.889328
O	1.889328	0.000000	0.000000
O	0.000000	1.889328	0.000000
O	0.000000	0.000000	1.889328
Al	0.000000	0.000000	3.778656
La	1.889328	1.889328	5.667984
O	1.889328	0.000000	3.778656
O	0.000000	1.889328	3.778656
O	0.000000	0.000000	5.667984
Al	0.000000	3.778656	0.000000
La	1.889328	5.667984	1.889328
O	1.889328	3.778656	0.000000
O	0.000000	5.667984	0.000000
O	0.000000	3.778656	1.889328
Al	0.000000	3.778656	3.778656
La	1.889328	5.667984	5.667984
O	1.889328	3.778656	3.778656
O	0.000000	5.667984	3.778656
O	0.000000	3.778656	5.667984
Al	3.778656	0.000000	0.000000
La	5.667984	1.889328	1.889328
O	5.667984	0.000000	0.000000
O	3.778656	1.889328	0.000000
O	3.778656	0.000000	1.889328
Al	3.778656	0.000000	3.778656
La	5.667984	1.889328	5.667984
O	5.667984	0.000000	3.778656
O	3.778656	1.889328	3.778656
O	3.778656	0.000000	5.667984
Al	3.778656	3.778656	0.000000
La	5.667984	5.667984	1.889328
O	5.667984	3.778656	0.000000
O	3.778656	5.667984	0.000000
O	3.778656	3.778656	1.889328
Al	3.778656	3.778656	3.778656
La	5.667984	5.667984	5.667984
O	5.667984	3.778656	3.778656
O	3.778656	5.667984	3.778656
O	3.778656	3.778656	5.667984
