40

Ba	2.357644	2.357644	2.357644
O	0.000000	2.357644	2.357644
O	2.357644	0.000000	2.357644
O	2.357644	2.357644	0.000000
Se	0.000000	0.000000	0.000000
Ba	2.357644	2.357644	7.072931
O	0.000000	2.357644	7.072931
O	2.357644	0.000000	7.072931
O	2.357644	2.357644	4.715287
Se	0.000000	0.000000	4.715287
Ba	2.357644	7.072931	2.357644
O	0.000000	7.072931	2.357644
O	2.357644	4.715287	2.357644
O	2.357644	7.072931	0.000000
Se	0.000000	4.715287	0.000000
Ba	2.357644	7.072931	7.072931
O	0.000000	7.072931	7.072931
O	2.357644	4.715287	7.072931
O	2.357644	7.072931	4.715287
Se	0.000000	4.715287	4.715287
Ba	7.072931	2.357644	2.357644
O	4.715287	2.357644	2.357644
O	7.072931	0.000000	2.357644
O	7.072931	2.357644	0.000000
Se	4.715287	0.000000	0.000000
Ba	7.072931	2.357644	7.072931
O	4.715287	2.357644	7.072931
O	7.072931	0.000000	7.072931
O	7.072931	2.357644	4.715287
Se	4.715287	0.000000	4.715287
Ba	7.072931	7.072931	2.357644
O	4.715287	7.072931	2.357644
O	7.072931	4.715287	2.357644
O	7.072931	7.072931	0.000000
Se	4.715287	4.715287	0.000000
Ba	7.072931	7.072931	7.072931
O	4.715287	7.072931	7.072931
O	7.072931	4.715287	7.072931
O	7.072931	7.072931	4.715287
Se	4.715287	4.715287	4.715287
