40

Al	0.000000	0.000000	0.000000
La	1.889537	1.889537	1.889537
O	1.889537	-0.015000	0.000000
O	0.000000	1.889537	0.000000
O	0.000000	0.000000	1.889537
Al	0.000000	0.000000	3.779073
La	1.889537	1.889537	5.668610
O	1.889537	-0.015000	3.779073
O	0.000000	1.889537	3.779073
O	0.000000	0.000000	5.668610
Al	0.000000	3.779073	0.000000
La	1.889537	5.668610	1.889537
O	1.889537	3.764073	0.000000
O	0.000000	5.668610	0.000000
O	0.000000	3.779073	1.889537
Al	0.000000	3.779073	3.779073
La	1.889537	5.668610	5.668610
O	1.889537	3.764073	3.779073
O	0.000000	5.668610	3.779073
O	0.000000	3.779073	5.668610
Al	3.779073	0.000000	0.000000
La	5.668610	1.889537	1.889537
O	5.668610	-0.015000	0.000000
O	3.779073	1.889537	0.000000
O	3.779073	0.000000	1.889537
Al	3.779073	0.000000	3.779073
La	5.668610	1.889537	5.668610
O	5.668610	-0.015000	3.779073
O	3.779073	1.889537	3.779073
O	3.779073	0.000000	5.668610
Al	3.779073	3.779073	0.000000
La	5.668610	5.668610	1.889537
O	5.668610	3.764073	0.000000
O	3.779073	5.668610	0.000000
O	3.779073	3.779073	1.889537
Al	3.779073	3.779073	3.779073
La	5.668610	5.668610	5.668610
O	5.668610	3.764073	3.779073
O	3.779073	5.668610	3.779073
O	3.779073	3.779073	5.668610
