40

Ba	2.302814	2.302814	2.302814
Hf	0.000000	0.000000	0.000000
O	2.302814	2.302814	0.000000
O	2.302814	0.000000	2.302814
O	0.000000	2.302814	2.302814
Ba	2.302814	2.302814	6.908440
Hf	0.000000	0.000000	4.605626
O	2.302814	2.302814	4.605626
O	2.302814	0.000000	6.908440
O	0.000000	2.302814	6.908440
Ba	2.302814	6.908440	2.302814
Hf	0.000000	4.605626	0.000000
O	2.302814	6.908440	0.000000
O	2.302814	4.605626	2.302814
O	0.000000	6.908440	2.302814
Ba	2.302814	6.908440	6.908440
Hf	0.000000	4.605626	4.605626
O	2.302814	6.908440	4.605626
O	2.302814	4.605626	6.908440
O	0.000000	6.908440	6.908440
Ba	6.908440	2.302814	2.302814
Hf	4.605626	0.000000	0.000000
O	6.908440	2.302814	0.000000
O	6.908440	0.000000	2.302814
O	4.605626	2.302814	2.302814
Ba	6.908440	2.302814	6.908440
Hf	4.605626	0.000000	4.605626
O	6.908440	2.302814	4.605626
O	6.908440	0.000000	6.908440
O	4.605626	2.302814	6.908440
Ba	6.908440	6.908440	2.302814
Hf	4.605626	4.605626	0.000000
O	6.908440	6.908440	0.000000
O	6.908440	4.605626	2.302814
O	4.605626	6.908440	2.302814
Ba	6.908440	6.908440	6.908440
Hf	4.605626	4.605626	4.605626
O	6.908440	6.908440	4.605626
O	6.908440	4.605626	6.908440
O	4.605626	6.908440	6.908440
