40

Ca	0.000000	0.000000	0.000000
Np	2.187960	2.187960	2.187960
O	2.187960	2.187960	0.000000
O	0.000000	2.187960	2.187960
O	2.187960	0.000000	2.187960
Ca	0.000000	0.000000	4.375921
Np	2.187960	2.187960	6.563881
O	2.187960	2.187960	4.375921
O	0.000000	2.187960	6.563881
O	2.187960	0.000000	6.563881
Ca	0.000000	4.375921	0.000000
Np	2.187960	6.563881	2.187960
O	2.187960	6.563881	0.000000
O	0.000000	6.563881	2.187960
O	2.187960	4.375921	2.187960
Ca	0.000000	4.375921	4.375921
Np	2.187960	6.563881	6.563881
O	2.187960	6.563881	4.375921
O	0.000000	6.563881	6.563881
O	2.187960	4.375921	6.563881
Ca	4.375921	0.000000	0.000000
Np	6.563881	2.187960	2.187960
O	6.563881	2.187960	0.000000
O	4.375921	2.187960	2.187960
O	6.563881	0.000000	2.187960
Ca	4.375921	0.000000	4.375921
Np	6.563881	2.187960	6.563881
O	6.563881	2.187960	4.375921
O	4.375921	2.187960	6.563881
O	6.563881	0.000000	6.563881
Ca	4.375921	4.375921	0.000000
Np	6.563881	6.563881	2.187960
O	6.563881	6.563881	0.000000
O	4.375921	6.563881	2.187960
O	6.563881	4.375921	2.187960
Ca	4.375921	4.375921	4.375921
Np	6.563881	6.563881	6.563881
O	6.563881	6.563881	4.375921
O	4.375921	6.563881	6.563881
O	6.563881	4.375921	6.563881
