40

K	0.000000	0.000000	0.000000
O	1.969626	1.969626	0.000000
O	1.969626	0.000000	1.969626
O	0.000000	1.969626	1.969626
Re	1.969626	1.969626	1.969626
K	0.000000	0.000000	3.939250
O	1.969626	1.969626	3.939250
O	1.969626	0.000000	5.908875
O	0.000000	1.969626	5.908875
Re	1.969626	1.969626	5.908875
K	0.000000	3.939250	0.000000
O	1.969626	5.908875	0.000000
O	1.969626	3.939250	1.969626
O	0.000000	5.908875	1.969626
Re	1.969626	5.908875	1.969626
K	0.000000	3.939250	3.939250
O	1.969626	5.908875	3.939250
O	1.969626	3.939250	5.908875
O	0.000000	5.908875	5.908875
Re	1.969626	5.908875	5.908875
K	3.939250	0.000000	0.000000
O	5.908875	1.969626	0.000000
O	5.908875	0.000000	1.969626
O	3.939250	1.969626	1.969626
Re	5.908875	1.969626	1.969626
K	3.939250	0.000000	3.939250
O	5.908875	1.969626	3.939250
O	5.908875	0.000000	5.908875
O	3.939250	1.969626	5.908875
Re	5.908875	1.969626	5.908875
K	3.939250	3.939250	0.000000
O	5.908875	5.908875	0.000000
O	5.908875	3.939250	1.969626
O	3.939250	5.908875	1.969626
Re	5.908875	5.908875	1.969626
K	3.939250	3.939250	3.939250
O	5.908875	5.908875	3.939250
O	5.908875	3.939250	5.908875
O	3.939250	5.908875	5.908875
Re	5.908875	5.908875	5.908875
