40

K	2.104706	2.104706	2.104706
O	2.104706	2.104706	0.000000
O	2.104706	0.000000	2.104706
O	0.000000	2.104706	2.104706
Re	0.000000	0.000000	0.000000
K	2.104706	2.104706	6.314122
O	2.104706	2.104706	4.209416
O	2.104706	0.000000	6.314122
O	0.000000	2.104706	6.314122
Re	0.000000	0.000000	4.209416
K	2.104706	6.314122	2.104706
O	2.104706	6.314122	0.000000
O	2.104706	4.209416	2.104706
O	0.000000	6.314122	2.104706
Re	0.000000	4.209416	0.000000
K	2.104706	6.314122	6.314122
O	2.104706	6.314122	4.209416
O	2.104706	4.209416	6.314122
O	0.000000	6.314122	6.314122
Re	0.000000	4.209416	4.209416
K	6.314122	2.104706	2.104706
O	6.314122	2.104706	0.000000
O	6.314122	0.000000	2.104706
O	4.209416	2.104706	2.104706
Re	4.209416	0.000000	0.000000
K	6.314122	2.104706	6.314122
O	6.314122	2.104706	4.209416
O	6.314122	0.000000	6.314122
O	4.209416	2.104706	6.314122
Re	4.209416	0.000000	4.209416
K	6.314122	6.314122	2.104706
O	6.314122	6.314122	0.000000
O	6.314122	4.209416	2.104706
O	4.209416	6.314122	2.104706
Re	4.209416	4.209416	0.000000
K	6.314122	6.314122	6.314122
O	6.314122	6.314122	4.209416
O	6.314122	4.209416	6.314122
O	4.209416	6.314122	6.314122
Re	4.209416	4.209416	4.209416
