40

Cd	2.113517	2.113517	2.113517
I	0.000000	0.000000	0.000000
O	0.000000	2.113517	2.113517
O	2.113517	0.000000	2.113517
O	2.113517	2.113517	0.000000
Cd	2.113517	2.113517	6.340551
I	0.000000	0.000000	4.227034
O	0.000000	2.113517	6.340551
O	2.113517	0.000000	6.340551
O	2.113517	2.113517	4.227034
Cd	2.113517	6.340551	2.113517
I	0.000000	4.227034	0.000000
O	0.000000	6.340551	2.113517
O	2.113517	4.227034	2.113517
O	2.113517	6.340551	0.000000
Cd	2.113517	6.340551	6.340551
I	0.000000	4.227034	4.227034
O	0.000000	6.340551	6.340551
O	2.113517	4.227034	6.340551
O	2.113517	6.340551	4.227034
Cd	6.340551	2.113517	2.113517
I	4.227034	0.000000	0.000000
O	4.227034	2.113517	2.113517
O	6.340551	0.000000	2.113517
O	6.340551	2.113517	0.000000
Cd	6.340551	2.113517	6.340551
I	4.227034	0.000000	4.227034
O	4.227034	2.113517	6.340551
O	6.340551	0.000000	6.340551
O	6.340551	2.113517	4.227034
Cd	6.340551	6.340551	2.113517
I	4.227034	4.227034	0.000000
O	4.227034	6.340551	2.113517
O	6.340551	4.227034	2.113517
O	6.340551	6.340551	0.000000
Cd	6.340551	6.340551	6.340551
I	4.227034	4.227034	4.227034
O	4.227034	6.340551	6.340551
O	6.340551	4.227034	6.340551
O	6.340551	6.340551	4.227034
