40

Cd	2.114980	2.114980	2.114980
I	0.000000	0.000000	0.000000
O	0.000000	2.114980	2.114980
O	2.114980	0.000000	2.114980
O	2.114980	2.114980	0.000000
Cd	2.114980	2.114980	6.344939
I	0.000000	0.000000	4.229960
O	0.000000	2.114980	6.344939
O	2.114980	0.000000	6.344939
O	2.114980	2.114980	4.229960
Cd	2.114980	6.344939	2.114980
I	0.000000	4.229960	0.000000
O	0.000000	6.344939	2.114980
O	2.114980	4.229960	2.114980
O	2.114980	6.344939	0.000000
Cd	2.114980	6.344939	6.344939
I	0.000000	4.229960	4.229960
O	0.000000	6.344939	6.344939
O	2.114980	4.229960	6.344939
O	2.114980	6.344939	4.229960
Cd	6.344939	2.114980	2.114980
I	4.229960	0.000000	0.000000
O	4.229960	2.114980	2.114980
O	6.344939	0.000000	2.114980
O	6.344939	2.114980	0.000000
Cd	6.344939	2.114980	6.344939
I	4.229960	0.000000	4.229960
O	4.229960	2.114980	6.344939
O	6.344939	0.000000	6.344939
O	6.344939	2.114980	4.229960
Cd	6.344939	6.344939	2.114980
I	4.229960	4.229960	0.000000
O	4.229960	6.344939	2.114980
O	6.344939	4.229960	2.114980
O	6.344939	6.344939	0.000000
Cd	6.344939	6.344939	6.344939
I	4.229960	4.229960	4.229960
O	4.229960	6.344939	6.344939
O	6.344939	4.229960	6.344939
O	6.344939	6.344939	4.229960
