40

Ag	2.008760	2.008760	2.008760
Ca_pv	0.000000	0.000000	0.000000
O	2.008760	0.000000	2.008760
O	0.000000	2.008760	2.008760
O	2.008760	2.008760	0.000000
Ag	2.008760	2.008760	6.026263
Ca_pv	0.000000	0.000000	4.017503
O	2.008760	0.000000	6.026263
O	0.000000	2.008760	6.026263
O	2.008760	2.008760	4.017503
Ag	2.008760	6.026263	2.008760
Ca_pv	0.000000	4.017503	0.000000
O	2.008760	4.017503	2.008760
O	0.000000	6.026263	2.008760
O	2.008760	6.026263	0.000000
Ag	2.008760	6.026263	6.026263
Ca_pv	0.000000	4.017503	4.017503
O	2.008760	4.017503	6.026263
O	0.000000	6.026263	6.026263
O	2.008760	6.026263	4.017503
Ag	6.026263	2.008760	2.008760
Ca_pv	4.017503	0.000000	0.000000
O	6.026263	0.000000	2.008760
O	4.017503	2.008760	2.008760
O	6.026263	2.008760	0.000000
Ag	6.026263	2.008760	6.026263
Ca_pv	4.017503	0.000000	4.017503
O	6.026263	0.000000	6.026263
O	4.017503	2.008760	6.026263
O	6.026263	2.008760	4.017503
Ag	6.026263	6.026263	2.008760
Ca_pv	4.017503	4.017503	0.000000
O	6.026263	4.017503	2.008760
O	4.017503	6.026263	2.008760
O	6.026263	6.026263	0.000000
Ag	6.026263	6.026263	6.026263
Ca_pv	4.017503	4.017503	4.017503
O	6.026263	4.017503	6.026263
O	4.017503	6.026263	6.026263
O	6.026263	6.026263	4.017503
