112

Be	0.000000	0.000000	0.000000
Be	2.206098	-2.206284	-2.206284
O	1.008797	1.009046	-1.009046
O	-1.197291	1.197229	-3.215330
O	3.214895	-1.197229	-1.197229
O	1.197291	-1.197229	-3.215330
O	1.008797	3.403513	-3.403513
O	3.403390	3.403513	-1.009046
O	3.403390	1.009045	-3.403513
O	5.609488	1.197229	-1.197229
Tl	-1.103049	-1.103142	-3.309426
Tl	3.309137	1.103142	-1.103142
Tl	5.515236	-1.103142	-1.103142
Tl	1.103049	1.103142	-3.309426
Be	4.412188	4.412563	0.000000
Be	6.618287	2.206279	-2.206284
O	5.420985	5.421608	-1.009046
O	3.214897	5.609791	-3.215330
O	7.627084	3.215334	-1.197229
O	5.609480	3.215334	-3.215330
O	5.420985	7.816076	-3.403513
O	7.815578	7.816076	-1.009046
O	7.815578	5.421608	-3.403513
O	10.021676	5.609791	-1.197229
Tl	3.309139	3.309421	-3.309426
Tl	7.721326	5.515705	-1.103142
Tl	9.927424	3.309421	-1.103142
Tl	5.515237	5.515705	-3.309426
Be	-4.412188	0.000000	-4.412563
Be	-2.206090	-2.206284	-6.618847
O	-3.403391	1.009046	-5.421608
O	-5.609480	1.197229	-7.627892
O	-1.197293	-1.197229	-5.609791
O	-3.214897	-1.197229	-7.627892
O	-3.403391	3.403513	-7.816076
O	-1.008799	3.403513	-5.421608
O	-1.008799	1.009045	-7.816076
O	1.197300	1.197229	-5.609791
Tl	-5.515237	-1.103142	-7.721989
Tl	-1.103051	1.103142	-5.515705
Tl	1.103047	-1.103142	-5.515705
Tl	-3.309139	1.103142	-7.721989
Be	0.000000	4.412563	-4.412563
Be	2.206098	2.206279	-6.618847
O	1.008797	5.421608	-5.421608
O	-1.197291	5.609791	-7.627892
O	3.214895	3.215334	-5.609791
O	1.197291	3.215334	-7.627892
O	1.008797	7.816076	-7.816076
O	3.403390	7.816076	-5.421608
O	3.403390	5.421608	-7.816076
O	5.609488	5.609791	-5.609791
Tl	-1.103049	3.309421	-7.721989
Tl	3.309137	5.515705	-5.515705
Tl	5.515236	3.309421	-5.515705
Tl	1.103049	5.515705	-7.721989
Be	4.412188	-4.412563	0.000000
Be	6.618287	-6.618847	-2.206284
O	5.420985	-3.403517	-1.009046
O	3.214897	-3.215334	-3.215330
O	7.627084	-5.609791	-1.197229
O	5.609480	-5.609791	-3.215330
O	5.420985	-1.009050	-3.403513
O	7.815578	-1.009050	-1.009046
O	7.815578	-3.403517	-3.403513
O	10.021676	-3.215334	-1.197229
Tl	3.309139	-5.515705	-3.309426
Tl	7.721326	-3.309421	-1.103142
Tl	9.927424	-5.515705	-1.103142
Tl	5.515237	-3.309421	-3.309426
Be	8.824377	0.000000	0.000000
Be	11.030475	-2.206284	-2.206284
O	9.833174	1.009046	-1.009046
O	7.627085	1.197229	-3.215330
O	12.039272	-1.197229	-1.197229
O	10.021668	-1.197229	-3.215330
O	9.833174	3.403513	-3.403513
O	12.227766	3.403513	-1.009046
O	12.227766	1.009045	-3.403513
O	14.433865	1.197229	-1.197229
Tl	7.721328	-1.103142	-3.309426
Tl	12.133514	1.103142	-1.103142
Tl	14.339612	-1.103142	-1.103142
Tl	9.927426	1.103142	-3.309426
Be	0.000000	-4.412563	-4.412563
Be	2.206098	-6.618847	-6.618847
O	1.008797	-3.403517	-5.421608
O	-1.197291	-3.215334	-7.627892
O	3.214895	-5.609791	-5.609791
O	1.197291	-5.609791	-7.627892
O	1.008797	-1.009050	-7.816076
O	3.403390	-1.009050	-5.421608
O	3.403390	-3.403517	-7.816076
O	5.609488	-3.215334	-5.609791
Tl	-1.103049	-5.515705	-7.721989
Tl	3.309137	-3.309421	-5.515705
Tl	5.515236	-5.515705	-5.515705
Tl	1.103049	-3.309421	-7.721989
Be	4.412188	0.000000	-4.412563
Be	6.618287	-2.206284	-6.618847
O	5.420985	1.009046	-5.421608
O	3.214897	1.197229	-7.627892
O	7.627084	-1.197229	-5.609791
O	5.609480	-1.197229	-7.627892
O	5.420985	3.403513	-7.816076
O	7.815578	3.403513	-5.421608
O	7.815578	1.009045	-7.816076
O	10.021676	1.197229	-5.609791
Tl	3.309139	-1.103142	-7.721989
Tl	7.721326	1.103142	-5.515705
Tl	9.927424	-1.103142	-5.515705
Tl	5.515237	1.103142	-7.721989
