40

Ag	2.010655	2.010655	2.010655
O	2.010655	2.010655	0.000000
O	0.000000	2.010655	2.010655
O	2.010655	0.000000	2.010655
Y	0.000000	0.000000	0.000000
Ag	2.010655	2.010655	6.031972
O	2.010655	2.010655	4.021318
O	0.000000	2.010655	6.031972
O	2.010655	0.000000	6.031972
Y	0.000000	0.000000	4.021318
Ag	2.010655	6.031972	2.010655
O	2.010655	6.031972	0.000000
O	0.000000	6.031972	2.010655
O	2.010655	4.021318	2.010655
Y	0.000000	4.021318	0.000000
Ag	2.010655	6.031972	6.031972
O	2.010655	6.031972	4.021318
O	0.000000	6.031972	6.031972
O	2.010655	4.021318	6.031972
Y	0.000000	4.021318	4.021318
Ag	6.031972	2.010655	2.010655
O	6.031972	2.010655	0.000000
O	4.021318	2.010655	2.010655
O	6.031972	0.000000	2.010655
Y	4.021318	0.000000	0.000000
Ag	6.031972	2.010655	6.031972
O	6.031972	2.010655	4.021318
O	4.021318	2.010655	6.031972
O	6.031972	0.000000	6.031972
Y	4.021318	0.000000	4.021318
Ag	6.031972	6.031972	2.010655
O	6.031972	6.031972	0.000000
O	4.021318	6.031972	2.010655
O	6.031972	4.021318	2.010655
Y	4.021318	4.021318	0.000000
Ag	6.031972	6.031972	6.031972
O	6.031972	6.031972	4.021318
O	4.021318	6.031972	6.031972
O	6.031972	4.021318	6.031972
Y	4.021318	4.021318	4.021318
