40

Mg	0.000000	0.000000	0.000000
Na	1.978730	1.978730	1.978730
O	1.978730	1.978730	0.000000
O	1.978730	0.000000	1.978730
O	0.000000	1.978730	1.978730
Mg	0.000000	0.000000	3.957467
Na	1.978730	1.978730	5.936197
O	1.978730	1.978730	3.957467
O	1.978730	0.000000	5.936197
O	0.000000	1.978730	5.936197
Mg	0.000000	3.957467	0.000000
Na	1.978730	5.936197	1.978730
O	1.978730	5.936197	0.000000
O	1.978730	3.957467	1.978730
O	0.000000	5.936197	1.978730
Mg	0.000000	3.957467	3.957467
Na	1.978730	5.936197	5.936197
O	1.978730	5.936197	3.957467
O	1.978730	3.957467	5.936197
O	0.000000	5.936197	5.936197
Mg	3.957467	0.000000	0.000000
Na	5.936197	1.978730	1.978730
O	5.936197	1.978730	0.000000
O	5.936197	0.000000	1.978730
O	3.957467	1.978730	1.978730
Mg	3.957467	0.000000	3.957467
Na	5.936197	1.978730	5.936197
O	5.936197	1.978730	3.957467
O	5.936197	0.000000	5.936197
O	3.957467	1.978730	5.936197
Mg	3.957467	3.957467	0.000000
Na	5.936197	5.936197	1.978730
O	5.936197	5.936197	0.000000
O	5.936197	3.957467	1.978730
O	3.957467	5.936197	1.978730
Mg	3.957467	3.957467	3.957467
Na	5.936197	5.936197	5.936197
O	5.936197	5.936197	3.957467
O	5.936197	3.957467	5.936197
O	3.957467	5.936197	5.936197
