40

Br	2.048501	2.048501	2.048501
In	0.000000	0.000000	0.000000
O	0.000000	2.048501	2.048501
O	2.048501	0.000000	2.048501
O	2.048501	2.048501	0.000000
Br	2.048501	2.048501	6.145503
In	0.000000	0.000000	4.097002
O	0.000000	2.048501	6.145503
O	2.048501	0.000000	6.145503
O	2.048501	2.048501	4.097002
Br	2.048501	6.145503	2.048501
In	0.000000	4.097002	0.000000
O	0.000000	6.145503	2.048501
O	2.048501	4.097002	2.048501
O	2.048501	6.145503	0.000000
Br	2.048501	6.145503	6.145503
In	0.000000	4.097002	4.097002
O	0.000000	6.145503	6.145503
O	2.048501	4.097002	6.145503
O	2.048501	6.145503	4.097002
Br	6.145503	2.048501	2.048501
In	4.097002	0.000000	0.000000
O	4.097002	2.048501	2.048501
O	6.145503	0.000000	2.048501
O	6.145503	2.048501	0.000000
Br	6.145503	2.048501	6.145503
In	4.097002	0.000000	4.097002
O	4.097002	2.048501	6.145503
O	6.145503	0.000000	6.145503
O	6.145503	2.048501	4.097002
Br	6.145503	6.145503	2.048501
In	4.097002	4.097002	0.000000
O	4.097002	6.145503	2.048501
O	6.145503	4.097002	2.048501
O	6.145503	6.145503	0.000000
Br	6.145503	6.145503	6.145503
In	4.097002	4.097002	4.097002
O	4.097002	6.145503	6.145503
O	6.145503	4.097002	6.145503
O	6.145503	6.145503	4.097002
