40

Nb	2.023895	2.023895	2.023895
O	0.000000	2.023895	2.023895
O	2.023895	0.000000	2.023895
O	2.023895	2.023895	0.000000
Re	0.000000	0.000000	0.000000
Nb	2.023895	2.023895	6.071685
O	0.000000	2.023895	6.071685
O	2.023895	0.000000	6.071685
O	2.023895	2.023895	4.047790
Re	0.000000	0.000000	4.047790
Nb	2.023895	6.071685	2.023895
O	0.000000	6.071685	2.023895
O	2.023895	4.047790	2.023895
O	2.023895	6.071685	0.000000
Re	0.000000	4.047790	0.000000
Nb	2.023895	6.071685	6.071685
O	0.000000	6.071685	6.071685
O	2.023895	4.047790	6.071685
O	2.023895	6.071685	4.047790
Re	0.000000	4.047790	4.047790
Nb	6.071685	2.023895	2.023895
O	4.047790	2.023895	2.023895
O	6.071685	0.000000	2.023895
O	6.071685	2.023895	0.000000
Re	4.047790	0.000000	0.000000
Nb	6.071685	2.023895	6.071685
O	4.047790	2.023895	6.071685
O	6.071685	0.000000	6.071685
O	6.071685	2.023895	4.047790
Re	4.047790	0.000000	4.047790
Nb	6.071685	6.071685	2.023895
O	4.047790	6.071685	2.023895
O	6.071685	4.047790	2.023895
O	6.071685	6.071685	0.000000
Re	4.047790	4.047790	0.000000
Nb	6.071685	6.071685	6.071685
O	4.047790	6.071685	6.071685
O	6.071685	4.047790	6.071685
O	6.071685	6.071685	4.047790
Re	4.047790	4.047790	4.047790
