96

Bi	0.000000	0.000000	0.000000
Li	1.441353	1.441353	1.441353
Li	3.794408	1.441353	1.441353
Li	1.441353	3.794408	1.441353
Li	3.794408	3.794408	1.441353
Li	1.441353	1.441353	3.794408
Li	3.794408	1.441353	3.794408
Li	1.441353	3.794408	3.794408
Li	3.794408	3.794408	3.794408
O	2.617885	2.617885	0.000000
O	2.617885	0.000000	2.617885
O	0.000000	2.617885	2.617885
Bi	0.000000	0.000000	5.235765
Li	1.441353	1.441353	6.677118
Li	3.794408	1.441353	6.677118
Li	1.441353	3.794408	6.677118
Li	3.794408	3.794408	6.677118
Li	1.441353	1.441353	9.030173
Li	3.794408	1.441353	9.030173
Li	1.441353	3.794408	9.030173
Li	3.794408	3.794408	9.030173
O	2.617885	2.617885	5.235765
O	2.617885	0.000000	7.853651
O	0.000000	2.617885	7.853651
Bi	0.000000	5.235765	0.000000
Li	1.441353	6.677118	1.441353
Li	3.794408	6.677118	1.441353
Li	1.441353	9.030173	1.441353
Li	3.794408	9.030173	1.441353
Li	1.441353	6.677118	3.794408
Li	3.794408	6.677118	3.794408
Li	1.441353	9.030173	3.794408
Li	3.794408	9.030173	3.794408
O	2.617885	7.853651	0.000000
O	2.617885	5.235765	2.617885
O	0.000000	7.853651	2.617885
Bi	0.000000	5.235765	5.235765
Li	1.441353	6.677118	6.677118
Li	3.794408	6.677118	6.677118
Li	1.441353	9.030173	6.677118
Li	3.794408	9.030173	6.677118
Li	1.441353	6.677118	9.030173
Li	3.794408	6.677118	9.030173
Li	1.441353	9.030173	9.030173
Li	3.794408	9.030173	9.030173
O	2.617885	7.853651	5.235765
O	2.617885	5.235765	7.853651
O	0.000000	7.853651	7.853651
Bi	5.235765	0.000000	0.000000
Li	6.677118	1.441353	1.441353
Li	9.030173	1.441353	1.441353
Li	6.677118	3.794408	1.441353
Li	9.030173	3.794408	1.441353
Li	6.677118	1.441353	3.794408
Li	9.030173	1.441353	3.794408
Li	6.677118	3.794408	3.794408
Li	9.030173	3.794408	3.794408
O	7.853651	2.617885	0.000000
O	7.853651	0.000000	2.617885
O	5.235765	2.617885	2.617885
Bi	5.235765	0.000000	5.235765
Li	6.677118	1.441353	6.677118
Li	9.030173	1.441353	6.677118
Li	6.677118	3.794408	6.677118
Li	9.030173	3.794408	6.677118
Li	6.677118	1.441353	9.030173
Li	9.030173	1.441353	9.030173
Li	6.677118	3.794408	9.030173
Li	9.030173	3.794408	9.030173
O	7.853651	2.617885	5.235765
O	7.853651	0.000000	7.853651
O	5.235765	2.617885	7.853651
Bi	5.235765	5.235765	0.000000
Li	6.677118	6.677118	1.441353
Li	9.030173	6.677118	1.441353
Li	6.677118	9.030173	1.441353
Li	9.030173	9.030173	1.441353
Li	6.677118	6.677118	3.794408
Li	9.030173	6.677118	3.794408
Li	6.677118	9.030173	3.794408
Li	9.030173	9.030173	3.794408
O	7.853651	7.853651	0.000000
O	7.853651	5.235765	2.617885
O	5.235765	7.853651	2.617885
Bi	5.235765	5.235765	5.235765
Li	6.677118	6.677118	6.677118
Li	9.030173	6.677118	6.677118
Li	6.677118	9.030173	6.677118
Li	9.030173	9.030173	6.677118
Li	6.677118	6.677118	9.030173
Li	9.030173	6.677118	9.030173
Li	6.677118	9.030173	9.030173
Li	9.030173	9.030173	9.030173
O	7.853651	7.853651	5.235765
O	7.853651	5.235765	7.853651
O	5.235765	7.853651	7.853651
