40

Cu	1.867653	1.867653	1.867653
Li	0.000000	0.000000	0.000000
O	1.867653	1.867653	0.000000
O	1.867653	0.000000	1.867653
O	0.000000	1.867653	1.867653
Cu	1.867653	1.867653	5.602959
Li	0.000000	0.000000	3.735306
O	1.867653	1.867653	3.735306
O	1.867653	0.000000	5.602959
O	0.000000	1.867653	5.602959
Cu	1.867653	5.602959	1.867653
Li	0.000000	3.735306	0.000000
O	1.867653	5.602959	0.000000
O	1.867653	3.735306	1.867653
O	0.000000	5.602959	1.867653
Cu	1.867653	5.602959	5.602959
Li	0.000000	3.735306	3.735306
O	1.867653	5.602959	3.735306
O	1.867653	3.735306	5.602959
O	0.000000	5.602959	5.602959
Cu	5.602959	1.867653	1.867653
Li	3.735306	0.000000	0.000000
O	5.602959	1.867653	0.000000
O	5.602959	0.000000	1.867653
O	3.735306	1.867653	1.867653
Cu	5.602959	1.867653	5.602959
Li	3.735306	0.000000	3.735306
O	5.602959	1.867653	3.735306
O	5.602959	0.000000	5.602959
O	3.735306	1.867653	5.602959
Cu	5.602959	5.602959	1.867653
Li	3.735306	3.735306	0.000000
O	5.602959	5.602959	0.000000
O	5.602959	3.735306	1.867653
O	3.735306	5.602959	1.867653
Cu	5.602959	5.602959	5.602959
Li	3.735306	3.735306	3.735306
O	5.602959	5.602959	3.735306
O	5.602959	3.735306	5.602959
O	3.735306	5.602959	5.602959
