40

O	0.000000	1.998782	1.998782
O	1.998782	0.000000	1.998782
O	1.998782	1.998782	0.000000
Sc	0.000000	0.000000	0.000000
Se	1.998782	1.998782	1.998782
O	0.000000	1.998782	5.996345
O	1.998782	0.000000	5.996345
O	1.998782	1.998782	3.997563
Sc	0.000000	0.000000	3.997563
Se	1.998782	1.998782	5.996345
O	0.000000	5.996345	1.998782
O	1.998782	3.997563	1.998782
O	1.998782	5.996345	0.000000
Sc	0.000000	3.997563	0.000000
Se	1.998782	5.996345	1.998782
O	0.000000	5.996345	5.996345
O	1.998782	3.997563	5.996345
O	1.998782	5.996345	3.997563
Sc	0.000000	3.997563	3.997563
Se	1.998782	5.996345	5.996345
O	3.997563	1.998782	1.998782
O	5.996345	0.000000	1.998782
O	5.996345	1.998782	0.000000
Sc	3.997563	0.000000	0.000000
Se	5.996345	1.998782	1.998782
O	3.997563	1.998782	5.996345
O	5.996345	0.000000	5.996345
O	5.996345	1.998782	3.997563
Sc	3.997563	0.000000	3.997563
Se	5.996345	1.998782	5.996345
O	3.997563	5.996345	1.998782
O	5.996345	3.997563	1.998782
O	5.996345	5.996345	0.000000
Sc	3.997563	3.997563	0.000000
Se	5.996345	5.996345	1.998782
O	3.997563	5.996345	5.996345
O	5.996345	3.997563	5.996345
O	5.996345	5.996345	3.997563
Sc	3.997563	3.997563	3.997563
Se	5.996345	5.996345	5.996345
