40

O	1.997850	1.997850	0.000000
O	0.000000	1.997850	1.997850
O	1.997850	0.000000	1.997850
Pr	0.000000	0.000000	0.000000
W	1.997850	1.997850	1.997850
O	1.997850	1.997850	3.995688
O	0.000000	1.997850	5.993538
O	1.997850	0.000000	5.993538
Pr	0.000000	0.000000	3.995688
W	1.997850	1.997850	5.993538
O	1.997850	5.993538	0.000000
O	0.000000	5.993538	1.997850
O	1.997850	3.995688	1.997850
Pr	0.000000	3.995688	0.000000
W	1.997850	5.993538	1.997850
O	1.997850	5.993538	3.995688
O	0.000000	5.993538	5.993538
O	1.997850	3.995688	5.993538
Pr	0.000000	3.995688	3.995688
W	1.997850	5.993538	5.993538
O	5.993538	1.997850	0.000000
O	3.995688	1.997850	1.997850
O	5.993538	0.000000	1.997850
Pr	3.995688	0.000000	0.000000
W	5.993538	1.997850	1.997850
O	5.993538	1.997850	3.995688
O	3.995688	1.997850	5.993538
O	5.993538	0.000000	5.993538
Pr	3.995688	0.000000	3.995688
W	5.993538	1.997850	5.993538
O	5.993538	5.993538	0.000000
O	3.995688	5.993538	1.997850
O	5.993538	3.995688	1.997850
Pr	3.995688	3.995688	0.000000
W	5.993538	5.993538	1.997850
O	5.993538	5.993538	3.995688
O	3.995688	5.993538	5.993538
O	5.993538	3.995688	5.993538
Pr	3.995688	3.995688	3.995688
W	5.993538	5.993538	5.993538
