40

As	1.933270	1.933270	1.933270
Ge	0.000000	0.000000	0.000000
O	1.933270	1.933270	0.000000
O	0.000000	1.933270	1.933270
O	1.933270	0.000000	1.933270
As	1.933270	1.933270	5.799816
Ge	0.000000	0.000000	3.866546
O	1.933270	1.933270	3.866546
O	0.000000	1.933270	5.799816
O	1.933270	0.000000	5.799816
As	1.933270	5.799816	1.933270
Ge	0.000000	3.866546	0.000000
O	1.933270	5.799816	0.000000
O	0.000000	5.799816	1.933270
O	1.933270	3.866546	1.933270
As	1.933270	5.799816	5.799816
Ge	0.000000	3.866546	3.866546
O	1.933270	5.799816	3.866546
O	0.000000	5.799816	5.799816
O	1.933270	3.866546	5.799816
As	5.799816	1.933270	1.933270
Ge	3.866546	0.000000	0.000000
O	5.799816	1.933270	0.000000
O	3.866546	1.933270	1.933270
O	5.799816	0.000000	1.933270
As	5.799816	1.933270	5.799816
Ge	3.866546	0.000000	3.866546
O	5.799816	1.933270	3.866546
O	3.866546	1.933270	5.799816
O	5.799816	0.000000	5.799816
As	5.799816	5.799816	1.933270
Ge	3.866546	3.866546	0.000000
O	5.799816	5.799816	0.000000
O	3.866546	5.799816	1.933270
O	5.799816	3.866546	1.933270
As	5.799816	5.799816	5.799816
Ge	3.866546	3.866546	3.866546
O	5.799816	5.799816	3.866546
O	3.866546	5.799816	5.799816
O	5.799816	3.866546	5.799816
