40

Nb	2.006169	2.006169	2.006169
O	0.000000	2.006169	2.006169
O	2.006169	0.000000	2.006169
O	2.006169	2.006169	0.000000
Ti	0.000000	0.000000	0.000000
Nb	2.006169	2.006169	6.018508
O	0.000000	2.006169	6.018508
O	2.006169	0.000000	6.018508
O	2.006169	2.006169	4.012339
Ti	0.000000	0.000000	4.012339
Nb	2.006169	6.018508	2.006169
O	0.000000	6.018508	2.006169
O	2.006169	4.012339	2.006169
O	2.006169	6.018508	0.000000
Ti	0.000000	4.012339	0.000000
Nb	2.006169	6.018508	6.018508
O	0.000000	6.018508	6.018508
O	2.006169	4.012339	6.018508
O	2.006169	6.018508	4.012339
Ti	0.000000	4.012339	4.012339
Nb	6.018508	2.006169	2.006169
O	4.012339	2.006169	2.006169
O	6.018508	0.000000	2.006169
O	6.018508	2.006169	0.000000
Ti	4.012339	0.000000	0.000000
Nb	6.018508	2.006169	6.018508
O	4.012339	2.006169	6.018508
O	6.018508	0.000000	6.018508
O	6.018508	2.006169	4.012339
Ti	4.012339	0.000000	4.012339
Nb	6.018508	6.018508	2.006169
O	4.012339	6.018508	2.006169
O	6.018508	4.012339	2.006169
O	6.018508	6.018508	0.000000
Ti	4.012339	4.012339	0.000000
Nb	6.018508	6.018508	6.018508
O	4.012339	6.018508	6.018508
O	6.018508	4.012339	6.018508
O	6.018508	6.018508	4.012339
Ti	4.012339	4.012339	4.012339
