112

O	3.587477	-0.977132	-0.977132
O	-0.975250	0.977132	-3.564255
O	0.975250	-0.977132	-3.564255
O	1.306114	1.293561	-1.293561
O	5.537978	0.977132	-0.977132
O	1.306114	3.247826	-3.247826
O	3.256614	3.247826	-1.293561
O	3.256614	1.293561	-3.247826
Pu	0.000000	0.000000	0.000000
Pu	2.281364	-2.270694	-2.270694
W	-1.140682	-1.135347	-3.406040
W	3.422046	1.135347	-1.135347
W	5.703410	-1.135347	-1.135347
W	1.140682	1.135347	-3.406040
O	8.150205	3.564255	-0.977132
O	3.587477	5.518520	-3.564255
O	5.537978	3.564255	-3.564255
O	5.868841	5.834949	-1.293561
O	10.100706	5.518520	-0.977132
O	5.868841	7.789213	-3.247826
O	7.819342	7.789213	-1.293561
O	7.819342	5.834949	-3.247826
Pu	4.562728	4.541387	0.000000
Pu	6.844092	2.270694	-2.270694
W	3.422046	3.406040	-3.406040
W	7.984773	5.676734	-1.135347
W	10.266137	3.406040	-1.135347
W	5.703410	5.676734	-3.406040
O	-0.975250	-0.977132	-5.518520
O	-5.537978	0.977132	-8.105642
O	-3.587477	-0.977132	-8.105642
O	-3.256614	1.293561	-5.834949
O	0.975250	0.977132	-5.518520
O	-3.256614	3.247826	-7.789213
O	-1.306114	3.247826	-5.834949
O	-1.306114	1.293561	-7.789213
Pu	-4.562728	0.000000	-4.541387
Pu	-2.281364	-2.270694	-6.812081
W	-5.703410	-1.135347	-7.947428
W	-1.140682	1.135347	-5.676734
W	1.140682	-1.135347	-5.676734
W	-3.422046	1.135347	-7.947428
O	3.587477	3.564255	-5.518520
O	-0.975250	5.518520	-8.105642
O	0.975250	3.564255	-8.105642
O	1.306114	5.834949	-5.834949
O	5.537978	5.518520	-5.518520
O	1.306114	7.789213	-7.789213
O	3.256614	7.789213	-5.834949
O	3.256614	5.834949	-7.789213
Pu	0.000000	4.541387	-4.541387
Pu	2.281364	2.270694	-6.812081
W	-1.140682	3.406040	-7.947428
W	3.422046	5.676734	-5.676734
W	5.703410	3.406040	-5.676734
W	1.140682	5.676734	-7.947428
O	8.150205	-5.518520	-0.977132
O	3.587477	-3.564255	-3.564255
O	5.537978	-5.518520	-3.564255
O	5.868841	-3.247826	-1.293561
O	10.100706	-3.564255	-0.977132
O	5.868841	-1.293561	-3.247826
O	7.819342	-1.293561	-1.293561
O	7.819342	-3.247826	-3.247826
Pu	4.562728	-4.541387	0.000000
Pu	6.844092	-6.812081	-2.270694
W	3.422046	-5.676734	-3.406040
W	7.984773	-3.406040	-1.135347
W	10.266137	-5.676734	-1.135347
W	5.703410	-3.406040	-3.406040
O	12.712933	-0.977132	-0.977132
O	8.150205	0.977132	-3.564255
O	10.100706	-0.977132	-3.564255
O	10.431569	1.293561	-1.293561
O	14.663433	0.977132	-0.977132
O	10.431569	3.247826	-3.247826
O	12.382069	3.247826	-1.293561
O	12.382069	1.293561	-3.247826
Pu	9.125455	0.000000	0.000000
Pu	11.406819	-2.270694	-2.270694
W	7.984773	-1.135347	-3.406040
W	12.547501	1.135347	-1.135347
W	14.828865	-1.135347	-1.135347
W	10.266137	1.135347	-3.406040
O	3.587477	-5.518520	-5.518520
O	-0.975250	-3.564255	-8.105642
O	0.975250	-5.518520	-8.105642
O	1.306114	-3.247826	-5.834949
O	5.537978	-3.564255	-5.518520
O	1.306114	-1.293561	-7.789213
O	3.256614	-1.293561	-5.834949
O	3.256614	-3.247826	-7.789213
Pu	0.000000	-4.541387	-4.541387
Pu	2.281364	-6.812081	-6.812081
W	-1.140682	-5.676734	-7.947428
W	3.422046	-3.406040	-5.676734
W	5.703410	-5.676734	-5.676734
W	1.140682	-3.406040	-7.947428
O	8.150205	-0.977132	-5.518520
O	3.587477	0.977132	-8.105642
O	5.537978	-0.977132	-8.105642
O	5.868841	1.293561	-5.834949
O	10.100706	0.977132	-5.518520
O	5.868841	3.247826	-7.789213
O	7.819342	3.247826	-5.834949
O	7.819342	1.293561	-7.789213
Pu	4.562728	0.000000	-4.541387
Pu	6.844092	-2.270694	-6.812081
W	3.422046	-1.135347	-7.947428
W	7.984773	1.135347	-5.676734
W	10.266137	-1.135347	-5.676734
W	5.703410	1.135347	-7.947428
