40

O	2.224033	2.224033	0.000000
O	2.224033	0.000000	2.224033
O	0.000000	2.224033	2.224033
Pd	0.000000	0.000000	0.000000
Sr	2.224033	2.224033	2.224033
O	2.224033	2.224033	4.448056
O	2.224033	0.000000	6.672089
O	0.000000	2.224033	6.672089
Pd	0.000000	0.000000	4.448056
Sr	2.224033	2.224033	6.672089
O	2.224033	6.672089	0.000000
O	2.224033	4.448056	2.224033
O	0.000000	6.672089	2.224033
Pd	0.000000	4.448056	0.000000
Sr	2.224033	6.672089	2.224033
O	2.224033	6.672089	4.448056
O	2.224033	4.448056	6.672089
O	0.000000	6.672089	6.672089
Pd	0.000000	4.448056	4.448056
Sr	2.224033	6.672089	6.672089
O	6.672089	2.224033	0.000000
O	6.672089	0.000000	2.224033
O	4.448056	2.224033	2.224033
Pd	4.448056	0.000000	0.000000
Sr	6.672089	2.224033	2.224033
O	6.672089	2.224033	4.448056
O	6.672089	0.000000	6.672089
O	4.448056	2.224033	6.672089
Pd	4.448056	0.000000	4.448056
Sr	6.672089	2.224033	6.672089
O	6.672089	6.672089	0.000000
O	6.672089	4.448056	2.224033
O	4.448056	6.672089	2.224033
Pd	4.448056	4.448056	0.000000
Sr	6.672089	6.672089	2.224033
O	6.672089	6.672089	4.448056
O	6.672089	4.448056	6.672089
O	4.448056	6.672089	6.672089
Pd	4.448056	4.448056	4.448056
Sr	6.672089	6.672089	6.672089
