112

As	0.000000	0.000000	0.000000
As	2.443247	-2.443268	-2.443268
K	-1.221623	-1.221634	-3.664892
K	6.108106	-1.221634	-1.221634
K	3.664860	1.221634	-1.221634
K	1.221623	1.221634	-3.664892
O	0.993429	0.993582	-0.993582
O	3.436666	-1.449676	-1.449676
O	-1.449817	1.449676	-3.436850
O	1.449817	-1.449676	-3.436850
O	0.993429	3.892944	-3.892944
O	3.893064	3.892944	-0.993582
O	3.893064	0.993582	-3.892944
O	6.336300	1.449676	-1.449676
As	4.886486	4.886526	0.000000
As	7.329732	2.443258	-2.443268
K	3.664863	3.664892	-3.664892
K	10.994592	3.664892	-1.221634
K	8.551346	6.108160	-1.221634
K	6.108109	6.108160	-3.664892
O	5.879915	5.880108	-0.993582
O	8.323152	3.436850	-1.449676
O	3.436669	6.336203	-3.436850
O	6.336303	3.436850	-3.436850
O	5.879915	8.779471	-3.892944
O	8.779549	8.779471	-0.993582
O	8.779550	5.880108	-3.892944
O	11.222786	6.336203	-1.449676
As	-4.886486	0.000000	-4.886526
As	-2.443239	-2.443268	-7.329794
K	-6.108109	-1.221634	-8.551418
K	1.221621	-1.221634	-6.108160
K	-1.221626	1.221634	-6.108160
K	-3.664863	1.221634	-8.551418
O	-3.893057	0.993582	-5.880108
O	-1.449820	-1.449676	-6.336203
O	-6.336303	1.449676	-8.323376
O	-3.436669	-1.449676	-8.323376
O	-3.893057	3.892944	-8.779471
O	-0.993422	3.892944	-5.880108
O	-0.993422	0.993582	-8.779471
O	1.449815	1.449676	-6.336203
As	0.000000	4.886526	-4.886526
As	2.443247	2.443258	-7.329794
K	-1.221623	3.664892	-8.551418
K	6.108106	3.664892	-6.108160
K	3.664860	6.108160	-6.108160
K	1.221623	6.108160	-8.551418
O	0.993429	5.880108	-5.880108
O	3.436666	3.436850	-6.336203
O	-1.449817	6.336203	-8.323376
O	1.449817	3.436850	-8.323376
O	0.993429	8.779471	-8.779471
O	3.893064	8.779471	-5.880108
O	3.893064	5.880108	-8.779471
O	6.336300	6.336203	-6.336203
As	4.886486	-4.886526	0.000000
As	7.329732	-7.329794	-2.443268
K	3.664863	-6.108160	-3.664892
K	10.994592	-6.108160	-1.221634
K	8.551346	-3.664892	-1.221634
K	6.108109	-3.664892	-3.664892
O	5.879915	-3.892944	-0.993582
O	8.323152	-6.336203	-1.449676
O	3.436669	-3.436850	-3.436850
O	6.336303	-6.336203	-3.436850
O	5.879915	-0.993582	-3.892944
O	8.779549	-0.993582	-0.993582
O	8.779550	-3.892945	-3.892944
O	11.222786	-3.436850	-1.449676
As	9.772972	0.000000	0.000000
As	12.216218	-2.443268	-2.443268
K	8.551348	-1.221634	-3.664892
K	15.881078	-1.221634	-1.221634
K	13.437831	1.221634	-1.221634
K	10.994595	1.221634	-3.664892
O	10.766401	0.993582	-0.993582
O	13.209638	-1.449676	-1.449676
O	8.323154	1.449676	-3.436850
O	11.222789	-1.449676	-3.436850
O	10.766401	3.892944	-3.892944
O	13.666035	3.892944	-0.993582
O	13.666035	0.993582	-3.892944
O	16.109272	1.449676	-1.449676
As	0.000000	-4.886526	-4.886526
As	2.443247	-7.329794	-7.329794
K	-1.221623	-6.108160	-8.551418
K	6.108106	-6.108160	-6.108160
K	3.664860	-3.664892	-6.108160
K	1.221623	-3.664892	-8.551418
O	0.993429	-3.892944	-5.880108
O	3.436666	-6.336203	-6.336203
O	-1.449817	-3.436850	-8.323376
O	1.449817	-6.336203	-8.323376
O	0.993429	-0.993582	-8.779471
O	3.893064	-0.993582	-5.880108
O	3.893064	-3.892945	-8.779471
O	6.336300	-3.436850	-6.336203
As	4.886486	0.000000	-4.886526
As	7.329732	-2.443268	-7.329794
K	3.664863	-1.221634	-8.551418
K	10.994592	-1.221634	-6.108160
K	8.551346	1.221634	-6.108160
K	6.108109	1.221634	-8.551418
O	5.879915	0.993582	-5.880108
O	8.323152	-1.449676	-6.336203
O	3.436669	1.449676	-8.323376
O	6.336303	-1.449676	-8.323376
O	5.879915	3.892944	-8.779471
O	8.779549	3.892944	-5.880108
O	8.779550	0.993582	-8.779471
O	11.222786	1.449676	-6.336203
