40

O	0.000000	1.953118	1.953118
O	1.953118	0.000000	1.953118
O	1.953118	1.953118	0.000000
Rh	0.000000	0.000000	0.000000
Ti	1.953118	1.953118	1.953118
O	0.000000	1.953118	5.859355
O	1.953118	0.000000	5.859355
O	1.953118	1.953118	3.906237
Rh	0.000000	0.000000	3.906237
Ti	1.953118	1.953118	5.859355
O	0.000000	5.859355	1.953118
O	1.953118	3.906237	1.953118
O	1.953118	5.859355	0.000000
Rh	0.000000	3.906237	0.000000
Ti	1.953118	5.859355	1.953118
O	0.000000	5.859355	5.859355
O	1.953118	3.906237	5.859355
O	1.953118	5.859355	3.906237
Rh	0.000000	3.906237	3.906237
Ti	1.953118	5.859355	5.859355
O	3.906237	1.953118	1.953118
O	5.859355	0.000000	1.953118
O	5.859355	1.953118	0.000000
Rh	3.906237	0.000000	0.000000
Ti	5.859355	1.953118	1.953118
O	3.906237	1.953118	5.859355
O	5.859355	0.000000	5.859355
O	5.859355	1.953118	3.906237
Rh	3.906237	0.000000	3.906237
Ti	5.859355	1.953118	5.859355
O	3.906237	5.859355	1.953118
O	5.859355	3.906237	1.953118
O	5.859355	5.859355	0.000000
Rh	3.906237	3.906237	0.000000
Ti	5.859355	5.859355	1.953118
O	3.906237	5.859355	5.859355
O	5.859355	3.906237	5.859355
O	5.859355	5.859355	3.906237
Rh	3.906237	3.906237	3.906237
Ti	5.859355	5.859355	5.859355
