40

C	0.000000	0.000000	0.000000
Cd	2.054127	2.054127	2.054127
O	0.000000	2.054127	2.054127
O	2.054127	0.000000	2.054127
O	2.054127	2.054127	0.000000
C	0.000000	0.000000	4.108253
Cd	2.054127	2.054127	6.162380
O	0.000000	2.054127	6.162380
O	2.054127	0.000000	6.162380
O	2.054127	2.054127	4.108253
C	0.000000	4.108253	0.000000
Cd	2.054127	6.162380	2.054127
O	0.000000	6.162380	2.054127
O	2.054127	4.108253	2.054127
O	2.054127	6.162380	0.000000
C	0.000000	4.108253	4.108253
Cd	2.054127	6.162380	6.162380
O	0.000000	6.162380	6.162380
O	2.054127	4.108253	6.162380
O	2.054127	6.162380	4.108253
C	4.108253	0.000000	0.000000
Cd	6.162380	2.054127	2.054127
O	4.108253	2.054127	2.054127
O	6.162380	0.000000	2.054127
O	6.162380	2.054127	0.000000
C	4.108253	0.000000	4.108253
Cd	6.162380	2.054127	6.162380
O	4.108253	2.054127	6.162380
O	6.162380	0.000000	6.162380
O	6.162380	2.054127	4.108253
C	4.108253	4.108253	0.000000
Cd	6.162380	6.162380	2.054127
O	4.108253	6.162380	2.054127
O	6.162380	4.108253	2.054127
O	6.162380	6.162380	0.000000
C	4.108253	4.108253	4.108253
Cd	6.162380	6.162380	6.162380
O	4.108253	6.162380	6.162380
O	6.162380	4.108253	6.162380
O	6.162380	6.162380	4.108253
