40

B	1.680515	1.680515	1.680515
Cu	0.000000	0.000000	0.000000
O	0.000000	1.680515	1.680515
O	1.680515	0.000000	1.680515
O	1.680515	1.680515	0.000000
B	1.680515	1.680515	5.041544
Cu	0.000000	0.000000	3.361029
O	0.000000	1.680515	5.041544
O	1.680515	0.000000	5.041544
O	1.680515	1.680515	3.361029
B	1.680515	5.041544	1.680515
Cu	0.000000	3.361029	0.000000
O	0.000000	5.041544	1.680515
O	1.680515	3.361029	1.680515
O	1.680515	5.041544	0.000000
B	1.680515	5.041544	5.041544
Cu	0.000000	3.361029	3.361029
O	0.000000	5.041544	5.041544
O	1.680515	3.361029	5.041544
O	1.680515	5.041544	3.361029
B	5.041544	1.680515	1.680515
Cu	3.361029	0.000000	0.000000
O	3.361029	1.680515	1.680515
O	5.041544	0.000000	1.680515
O	5.041544	1.680515	0.000000
B	5.041544	1.680515	5.041544
Cu	3.361029	0.000000	3.361029
O	3.361029	1.680515	5.041544
O	5.041544	0.000000	5.041544
O	5.041544	1.680515	3.361029
B	5.041544	5.041544	1.680515
Cu	3.361029	3.361029	0.000000
O	3.361029	5.041544	1.680515
O	5.041544	3.361029	1.680515
O	5.041544	5.041544	0.000000
B	5.041544	5.041544	5.041544
Cu	3.361029	3.361029	3.361029
O	3.361029	5.041544	5.041544
O	5.041544	3.361029	5.041544
O	5.041544	5.041544	3.361029
