40

Ag	0.000000	0.000000	0.000000
Nd	2.226562	2.226562	2.226562
O	2.226562	2.226562	0.000000
O	2.226562	0.000000	2.226562
O	0.000000	2.226562	2.226562
Ag	0.000000	0.000000	4.453133
Nd	2.226562	2.226562	6.679695
O	2.226562	2.226562	4.453133
O	2.226562	0.000000	6.679695
O	0.000000	2.226562	6.679695
Ag	0.000000	4.453133	0.000000
Nd	2.226562	6.679695	2.226562
O	2.226562	6.679695	0.000000
O	2.226562	4.453133	2.226562
O	0.000000	6.679695	2.226562
Ag	0.000000	4.453133	4.453133
Nd	2.226562	6.679695	6.679695
O	2.226562	6.679695	4.453133
O	2.226562	4.453133	6.679695
O	0.000000	6.679695	6.679695
Ag	4.453133	0.000000	0.000000
Nd	6.679695	2.226562	2.226562
O	6.679695	2.226562	0.000000
O	6.679695	0.000000	2.226562
O	4.453133	2.226562	2.226562
Ag	4.453133	0.000000	4.453133
Nd	6.679695	2.226562	6.679695
O	6.679695	2.226562	4.453133
O	6.679695	0.000000	6.679695
O	4.453133	2.226562	6.679695
Ag	4.453133	4.453133	0.000000
Nd	6.679695	6.679695	2.226562
O	6.679695	6.679695	0.000000
O	6.679695	4.453133	2.226562
O	4.453133	6.679695	2.226562
Ag	4.453133	4.453133	4.453133
Nd	6.679695	6.679695	6.679695
O	6.679695	6.679695	4.453133
O	6.679695	4.453133	6.679695
O	4.453133	6.679695	6.679695
