112

O	-1.033569	1.033402	-4.125595
O	4.124228	-1.033402	-1.033402
O	1.033569	-1.033402	-4.125595
O	1.545324	1.546096	-1.546096
O	6.191367	1.033402	-1.033402
O	1.545324	3.612900	-3.612900
O	3.612473	3.612900	-1.546096
O	3.612473	1.546096	-3.612900
Pd	0.000000	0.000000	0.000000
Pd	2.578894	-2.579498	-2.579498
Th	-1.289447	-1.289754	-3.869252
Th	6.447244	-1.289754	-1.289754
Th	1.289447	1.289754	-3.869252
Th	3.868351	1.289754	-1.289754
O	4.124227	6.192401	-4.125595
O	9.282025	4.125597	-1.033402
O	6.191366	4.125597	-4.125595
O	6.703121	6.705095	-1.546096
O	11.349163	6.192401	-1.033402
O	6.703121	8.771899	-3.612900
O	8.770270	8.771899	-1.546096
O	8.770270	6.705095	-3.612900
Pd	5.157797	5.158999	0.000000
Pd	7.736690	2.579501	-2.579498
Th	3.868350	3.869245	-3.869252
Th	11.605041	3.869245	-1.289754
Th	6.447244	6.448753	-3.869252
Th	9.026147	6.448753	-1.289754
O	-6.191366	1.033402	-9.284594
O	-1.033569	-1.033402	-6.192401
O	-4.124227	-1.033402	-9.284594
O	-3.612473	1.546096	-6.705095
O	1.033570	1.033402	-6.192401
O	-3.612473	3.612900	-8.771899
O	-1.545324	3.612900	-6.705095
O	-1.545324	1.546096	-8.771899
Pd	-5.157797	0.000000	-5.158999
Pd	-2.578903	-2.579498	-7.738497
Th	-6.447244	-1.289754	-9.028251
Th	1.289447	-1.289754	-6.448753
Th	-3.868350	1.289754	-9.028251
Th	-1.289446	1.289754	-6.448753
O	-1.033569	6.192401	-9.284594
O	4.124228	4.125597	-6.192401
O	1.033569	4.125597	-9.284594
O	1.545324	6.705095	-6.705095
O	6.191367	6.192401	-6.192401
O	1.545324	8.771899	-8.771899
O	3.612473	8.771899	-6.705095
O	3.612473	6.705095	-8.771899
Pd	0.000000	5.158999	-5.158999
Pd	2.578894	2.579501	-7.738497
Th	-1.289447	3.869245	-9.028251
Th	6.447244	3.869245	-6.448753
Th	1.289447	6.448753	-9.028251
Th	3.868351	6.448753	-6.448753
O	4.124227	-4.125597	-4.125595
O	9.282025	-6.192401	-1.033402
O	6.191366	-6.192401	-4.125595
O	6.703121	-3.612903	-1.546096
O	11.349163	-4.125597	-1.033402
O	6.703121	-1.546099	-3.612900
O	8.770270	-1.546099	-1.546096
O	8.770270	-3.612903	-3.612900
Pd	5.157797	-5.158999	0.000000
Pd	7.736690	-7.738497	-2.579498
Th	3.868350	-6.448753	-3.869252
Th	11.605041	-6.448753	-1.289754
Th	6.447244	-3.869245	-3.869252
Th	9.026147	-3.869245	-1.289754
O	9.282024	1.033402	-4.125595
O	14.439822	-1.033402	-1.033402
O	11.349163	-1.033402	-4.125595
O	11.860918	1.546096	-1.546096
O	16.506960	1.033402	-1.033402
O	11.860918	3.612900	-3.612900
O	13.928067	3.612900	-1.546096
O	13.928067	1.546096	-3.612900
Pd	10.315594	0.000000	0.000000
Pd	12.894487	-2.579498	-2.579498
Th	9.026147	-1.289754	-3.869252
Th	16.762838	-1.289754	-1.289754
Th	11.605040	1.289754	-3.869252
Th	14.183944	1.289754	-1.289754
O	-1.033569	-4.125597	-9.284594
O	4.124228	-6.192401	-6.192401
O	1.033569	-6.192401	-9.284594
O	1.545324	-3.612903	-6.705095
O	6.191367	-4.125597	-6.192401
O	1.545324	-1.546099	-8.771899
O	3.612473	-1.546099	-6.705095
O	3.612473	-3.612903	-8.771899
Pd	0.000000	-5.158999	-5.158999
Pd	2.578894	-7.738497	-7.738497
Th	-1.289447	-6.448753	-9.028251
Th	6.447244	-6.448753	-6.448753
Th	1.289447	-3.869245	-9.028251
Th	3.868351	-3.869245	-6.448753
O	4.124227	1.033402	-9.284594
O	9.282025	-1.033402	-6.192401
O	6.191366	-1.033402	-9.284594
O	6.703121	1.546096	-6.705095
O	11.349163	1.033402	-6.192401
O	6.703121	3.612900	-8.771899
O	8.770270	3.612900	-6.705095
O	8.770270	1.546096	-8.771899
Pd	5.157797	0.000000	-5.158999
Pd	7.736690	-2.579498	-7.738497
Th	3.868350	-1.289754	-9.028251
Th	11.605041	-1.289754	-6.448753
Th	6.447244	1.289754	-9.028251
Th	9.026147	1.289754	-6.448753
