40

Cd	2.070002	2.070002	2.070002
Ir	0.000000	0.000000	0.000000
O	0.000000	2.070002	2.070002
O	2.070002	0.000000	2.070002
O	2.070002	2.070002	0.000000
Cd	2.070002	2.070002	6.210007
Ir	0.000000	0.000000	4.140005
O	0.000000	2.070002	6.210007
O	2.070002	0.000000	6.210007
O	2.070002	2.070002	4.140005
Cd	2.070002	6.210007	2.070002
Ir	0.000000	4.140005	0.000000
O	0.000000	6.210007	2.070002
O	2.070002	4.140005	2.070002
O	2.070002	6.210007	0.000000
Cd	2.070002	6.210007	6.210007
Ir	0.000000	4.140005	4.140005
O	0.000000	6.210007	6.210007
O	2.070002	4.140005	6.210007
O	2.070002	6.210007	4.140005
Cd	6.210007	2.070002	2.070002
Ir	4.140005	0.000000	0.000000
O	4.140005	2.070002	2.070002
O	6.210007	0.000000	2.070002
O	6.210007	2.070002	0.000000
Cd	6.210007	2.070002	6.210007
Ir	4.140005	0.000000	4.140005
O	4.140005	2.070002	6.210007
O	6.210007	0.000000	6.210007
O	6.210007	2.070002	4.140005
Cd	6.210007	6.210007	2.070002
Ir	4.140005	4.140005	0.000000
O	4.140005	6.210007	2.070002
O	6.210007	4.140005	2.070002
O	6.210007	6.210007	0.000000
Cd	6.210007	6.210007	6.210007
Ir	4.140005	4.140005	4.140005
O	4.140005	6.210007	6.210007
O	6.210007	4.140005	6.210007
O	6.210007	6.210007	4.140005
