112

Cr	0.000000	0.000000	0.000000
Cr	2.233158	-2.233371	-2.233371
O	1.056666	1.057088	-1.057088
O	-1.176492	1.176283	-3.290458
O	3.289823	-1.176283	-1.176283
O	1.176492	-1.176283	-3.290458
O	1.056666	3.409653	-3.409653
O	3.409640	3.409653	-1.057088
O	3.409640	1.057088	-3.409653
O	5.642797	1.176283	-1.176283
Yb	-1.116574	-1.116685	-3.350056
Yb	1.116574	1.116685	-3.350056
Yb	3.349731	1.116685	-1.116685
Yb	5.582889	-1.116685	-1.116685
Cr	4.466308	4.466738	0.000000
Cr	6.699466	2.233367	-2.233371
O	5.522974	5.523826	-1.057088
O	3.289816	5.643021	-3.290458
O	7.756132	3.290455	-1.176283
O	5.642800	3.290455	-3.290458
O	5.522974	7.876391	-3.409653
O	7.875948	7.876391	-1.057088
O	7.875948	5.523826	-3.409653
O	10.109105	5.643021	-1.176283
Yb	3.349734	3.350053	-3.350056
Yb	5.582882	5.583423	-3.350056
Yb	7.816040	5.583423	-1.116685
Yb	10.049197	3.350053	-1.116685
Cr	-4.466308	0.000000	-4.466738
Cr	-2.233151	-2.233371	-6.700109
O	-3.409642	1.057088	-5.523826
O	-5.642800	1.176283	-7.757196
O	-1.176485	-1.176283	-5.643021
O	-3.289816	-1.176283	-7.757196
O	-3.409642	3.409653	-7.876391
O	-1.056669	3.409653	-5.523826
O	-1.056669	1.057088	-7.876391
O	1.176489	1.176283	-5.643021
Yb	-5.582882	-1.116685	-7.816794
Yb	-3.349734	1.116685	-7.816794
Yb	-1.116577	1.116685	-5.583423
Yb	1.116581	-1.116685	-5.583423
Cr	0.000000	4.466738	-4.466738
Cr	2.233158	2.233367	-6.700109
O	1.056666	5.523826	-5.523826
O	-1.176492	5.643021	-7.757196
O	3.289823	3.290455	-5.643021
O	1.176492	3.290455	-7.757196
O	1.056666	7.876391	-7.876391
O	3.409640	7.876391	-5.523826
O	3.409640	5.523826	-7.876391
O	5.642797	5.643021	-5.643021
Yb	-1.116574	3.350053	-7.816794
Yb	1.116574	5.583423	-7.816794
Yb	3.349731	5.583423	-5.583423
Yb	5.582889	3.350053	-5.583423
Cr	4.466308	-4.466738	0.000000
Cr	6.699466	-6.700109	-2.233371
O	5.522974	-3.409650	-1.057088
O	3.289816	-3.290455	-3.290458
O	7.756132	-5.643021	-1.176283
O	5.642800	-5.643021	-3.290458
O	5.522974	-1.057085	-3.409653
O	7.875948	-1.057085	-1.057088
O	7.875948	-3.409650	-3.409653
O	10.109105	-3.290455	-1.176283
Yb	3.349734	-5.583423	-3.350056
Yb	5.582882	-3.350053	-3.350056
Yb	7.816040	-3.350053	-1.116685
Yb	10.049197	-5.583423	-1.116685
Cr	8.932616	0.000000	0.000000
Cr	11.165774	-2.233371	-2.233371
O	9.989282	1.057088	-1.057088
O	7.756125	1.176283	-3.290458
O	12.222440	-1.176283	-1.176283
O	10.109108	-1.176283	-3.290458
O	9.989282	3.409653	-3.409653
O	12.342256	3.409653	-1.057088
O	12.342256	1.057088	-3.409653
O	14.575414	1.176283	-1.176283
Yb	7.816043	-1.116685	-3.350056
Yb	10.049190	1.116685	-3.350056
Yb	12.282348	1.116685	-1.116685
Yb	14.515506	-1.116685	-1.116685
Cr	0.000000	-4.466738	-4.466738
Cr	2.233158	-6.700109	-6.700109
O	1.056666	-3.409650	-5.523826
O	-1.176492	-3.290455	-7.757196
O	3.289823	-5.643021	-5.643021
O	1.176492	-5.643021	-7.757196
O	1.056666	-1.057085	-7.876391
O	3.409640	-1.057085	-5.523826
O	3.409640	-3.409650	-7.876391
O	5.642797	-3.290455	-5.643021
Yb	-1.116574	-5.583423	-7.816794
Yb	1.116574	-3.350053	-7.816794
Yb	3.349731	-3.350053	-5.583423
Yb	5.582889	-5.583423	-5.583423
Cr	4.466308	0.000000	-4.466738
Cr	6.699466	-2.233371	-6.700109
O	5.522974	1.057088	-5.523826
O	3.289816	1.176283	-7.757196
O	7.756132	-1.176283	-5.643021
O	5.642800	-1.176283	-7.757196
O	5.522974	3.409653	-7.876391
O	7.875948	3.409653	-5.523826
O	7.875948	1.057088	-7.876391
O	10.109105	1.176283	-5.643021
Yb	3.349734	-1.116685	-7.816794
Yb	5.582882	1.116685	-7.816794
Yb	7.816040	1.116685	-5.583423
Yb	10.049197	-1.116685	-5.583423
