112

Cd	0.000000	0.000000	0.000000
Cd	2.365993	-2.366612	-2.366612
Na	-1.182996	-1.183306	-3.549918
Na	3.548990	1.183306	-1.183306
Na	5.914983	-1.183306	-1.183306
Na	1.182997	1.183306	-3.549918
O	3.569568	-1.162081	-1.162081
O	-1.162418	1.162081	-3.571143
O	1.162418	-1.162081	-3.571143
O	1.203575	1.204531	-1.204531
O	5.894404	1.162081	-1.162081
O	1.203575	3.528693	-3.528693
O	3.528411	3.528693	-1.204531
O	3.528411	1.204531	-3.528693
Cd	4.731986	4.733224	0.000000
Cd	7.097979	2.366612	-2.366612
Na	3.548990	3.549918	-3.549918
Na	8.280976	5.916529	-1.183306
Na	10.646969	3.549918	-1.183306
Na	5.914983	5.916529	-3.549918
O	8.301554	3.571143	-1.162081
O	3.569568	5.895305	-3.571143
O	5.894404	3.571143	-3.571143
O	5.935561	5.937754	-1.204531
O	10.626390	5.895305	-1.162081
O	5.935561	8.261916	-3.528693
O	8.260397	8.261916	-1.204531
O	8.260397	5.937754	-3.528693
Cd	-4.731986	0.000000	-4.733224
Cd	-2.365993	-2.366612	-7.099835
Na	-5.914983	-1.183306	-8.283141
Na	-1.182997	1.183306	-5.916529
Na	1.182997	-1.183306	-5.916529
Na	-3.548990	1.183306	-8.283141
O	-1.162418	-1.162081	-5.895305
O	-5.894404	1.162081	-8.304366
O	-3.569568	-1.162081	-8.304366
O	-3.528411	1.204531	-5.937754
O	1.162418	1.162081	-5.895305
O	-3.528411	3.528693	-8.261916
O	-1.203575	3.528693	-5.937754
O	-1.203575	1.204531	-8.261916
Cd	0.000000	4.733224	-4.733224
Cd	2.365993	2.366612	-7.099835
Na	-1.182996	3.549918	-8.283141
Na	3.548990	5.916529	-5.916529
Na	5.914983	3.549918	-5.916529
Na	1.182997	5.916529	-8.283141
O	3.569568	3.571143	-5.895305
O	-1.162418	5.895305	-8.304366
O	1.162418	3.571143	-8.304366
O	1.203575	5.937754	-5.937754
O	5.894404	5.895305	-5.895305
O	1.203575	8.261916	-8.261916
O	3.528411	8.261916	-5.937754
O	3.528411	5.937754	-8.261916
Cd	4.731986	-4.733224	0.000000
Cd	7.097979	-7.099835	-2.366612
Na	3.548990	-5.916529	-3.549918
Na	8.280976	-3.549918	-1.183306
Na	10.646969	-5.916529	-1.183306
Na	5.914983	-3.549918	-3.549918
O	8.301554	-5.895304	-1.162081
O	3.569568	-3.571143	-3.571143
O	5.894404	-5.895304	-3.571143
O	5.935561	-3.528693	-1.204531
O	10.626390	-3.571143	-1.162081
O	5.935561	-1.204531	-3.528693
O	8.260397	-1.204531	-1.204531
O	8.260397	-3.528693	-3.528693
Cd	9.463972	0.000000	0.000000
Cd	11.829965	-2.366612	-2.366612
Na	8.280976	-1.183306	-3.549918
Na	13.012962	1.183306	-1.183306
Na	15.378955	-1.183306	-1.183306
Na	10.646969	1.183306	-3.549918
O	13.033540	-1.162081	-1.162081
O	8.301554	1.162081	-3.571143
O	10.626390	-1.162081	-3.571143
O	10.667547	1.204531	-1.204531
O	15.358376	1.162081	-1.162081
O	10.667547	3.528693	-3.528693
O	12.992383	3.528693	-1.204531
O	12.992383	1.204531	-3.528693
Cd	0.000000	-4.733224	-4.733224
Cd	2.365993	-7.099835	-7.099835
Na	-1.182996	-5.916529	-8.283141
Na	3.548989	-3.549918	-5.916529
Na	5.914983	-5.916529	-5.916529
Na	1.182997	-3.549918	-8.283141
O	3.569568	-5.895304	-5.895305
O	-1.162418	-3.571143	-8.304366
O	1.162418	-5.895304	-8.304366
O	1.203575	-3.528693	-5.937754
O	5.894404	-3.571143	-5.895305
O	1.203575	-1.204531	-8.261916
O	3.528411	-1.204531	-5.937754
O	3.528411	-3.528693	-8.261916
Cd	4.731986	0.000000	-4.733224
Cd	7.097979	-2.366612	-7.099835
Na	3.548990	-1.183306	-8.283141
Na	8.280976	1.183306	-5.916529
Na	10.646969	-1.183306	-5.916529
Na	5.914983	1.183306	-8.283141
O	8.301554	-1.162081	-5.895305
O	3.569568	1.162081	-8.304366
O	5.894404	-1.162081	-8.304366
O	5.935561	1.204531	-5.937754
O	10.626390	1.162081	-5.895305
O	5.935561	3.528693	-8.261916
O	8.260397	3.528693	-5.937754
O	8.260397	1.204531	-8.261916
