40

Hg	2.098945	2.098945	2.098945
O	0.000000	2.098945	2.098945
O	2.098945	0.000000	2.098945
O	2.098945	2.098945	0.000000
Os	0.000000	0.000000	0.000000
Hg	2.098945	2.098945	6.296835
O	0.000000	2.098945	6.296835
O	2.098945	0.000000	6.296835
O	2.098945	2.098945	4.197890
Os	0.000000	0.000000	4.197890
Hg	2.098945	6.296835	2.098945
O	0.000000	6.296835	2.098945
O	2.098945	4.197890	2.098945
O	2.098945	6.296835	0.000000
Os	0.000000	4.197890	0.000000
Hg	2.098945	6.296835	6.296835
O	0.000000	6.296835	6.296835
O	2.098945	4.197890	6.296835
O	2.098945	6.296835	4.197890
Os	0.000000	4.197890	4.197890
Hg	6.296835	2.098945	2.098945
O	4.197890	2.098945	2.098945
O	6.296835	0.000000	2.098945
O	6.296835	2.098945	0.000000
Os	4.197890	0.000000	0.000000
Hg	6.296835	2.098945	6.296835
O	4.197890	2.098945	6.296835
O	6.296835	0.000000	6.296835
O	6.296835	2.098945	4.197890
Os	4.197890	0.000000	4.197890
Hg	6.296835	6.296835	2.098945
O	4.197890	6.296835	2.098945
O	6.296835	4.197890	2.098945
O	6.296835	6.296835	0.000000
Os	4.197890	4.197890	0.000000
Hg	6.296835	6.296835	6.296835
O	4.197890	6.296835	6.296835
O	6.296835	4.197890	6.296835
O	6.296835	6.296835	4.197890
Os	4.197890	4.197890	4.197890
