40

Li	0.000000	0.000000	0.000000
Mg	1.922367	1.922367	1.922367
O	1.922367	1.922367	0.000000
O	1.922367	0.000000	1.922367
O	0.000000	1.922367	1.922367
Li	0.000000	0.000000	3.844723
Mg	1.922367	1.922367	5.767090
O	1.922367	1.922367	3.844723
O	1.922367	0.000000	5.767090
O	0.000000	1.922367	5.767090
Li	0.000000	3.844723	0.000000
Mg	1.922367	5.767090	1.922367
O	1.922367	5.767090	0.000000
O	1.922367	3.844723	1.922367
O	0.000000	5.767090	1.922367
Li	0.000000	3.844723	3.844723
Mg	1.922367	5.767090	5.767090
O	1.922367	5.767090	3.844723
O	1.922367	3.844723	5.767090
O	0.000000	5.767090	5.767090
Li	3.844723	0.000000	0.000000
Mg	5.767090	1.922367	1.922367
O	5.767090	1.922367	0.000000
O	5.767090	0.000000	1.922367
O	3.844723	1.922367	1.922367
Li	3.844723	0.000000	3.844723
Mg	5.767090	1.922367	5.767090
O	5.767090	1.922367	3.844723
O	5.767090	0.000000	5.767090
O	3.844723	1.922367	5.767090
Li	3.844723	3.844723	0.000000
Mg	5.767090	5.767090	1.922367
O	5.767090	5.767090	0.000000
O	5.767090	3.844723	1.922367
O	3.844723	5.767090	1.922367
Li	3.844723	3.844723	3.844723
Mg	5.767090	5.767090	5.767090
O	5.767090	5.767090	3.844723
O	5.767090	3.844723	5.767090
O	3.844723	5.767090	5.767090
