40

As	1.879930	1.879930	1.879930
Fe	0.000000	0.000000	0.000000
O	1.879930	1.879930	0.000000
O	0.000000	1.879930	1.879930
O	1.879930	0.000000	1.879930
As	1.879930	1.879930	5.639783
Fe	0.000000	0.000000	3.759853
O	1.879930	1.879930	3.759853
O	0.000000	1.879930	5.639783
O	1.879930	0.000000	5.639783
As	1.879930	5.639783	1.879930
Fe	0.000000	3.759853	0.000000
O	1.879930	5.639783	0.000000
O	0.000000	5.639783	1.879930
O	1.879930	3.759853	1.879930
As	1.879930	5.639783	5.639783
Fe	0.000000	3.759853	3.759853
O	1.879930	5.639783	3.759853
O	0.000000	5.639783	5.639783
O	1.879930	3.759853	5.639783
As	5.639783	1.879930	1.879930
Fe	3.759853	0.000000	0.000000
O	5.639783	1.879930	0.000000
O	3.759853	1.879930	1.879930
O	5.639783	0.000000	1.879930
As	5.639783	1.879930	5.639783
Fe	3.759853	0.000000	3.759853
O	5.639783	1.879930	3.759853
O	3.759853	1.879930	5.639783
O	5.639783	0.000000	5.639783
As	5.639783	5.639783	1.879930
Fe	3.759853	3.759853	0.000000
O	5.639783	5.639783	0.000000
O	3.759853	5.639783	1.879930
O	5.639783	3.759853	1.879930
As	5.639783	5.639783	5.639783
Fe	3.759853	3.759853	3.759853
O	5.639783	5.639783	3.759853
O	3.759853	5.639783	5.639783
O	5.639783	3.759853	5.639783
