40

As	0.000000	0.000000	0.000000
Fe	1.897610	1.897610	1.897610
O	1.897610	0.000000	1.897610
O	0.000000	1.897610	1.897610
O	1.897610	1.897610	0.000000
As	0.000000	0.000000	3.795213
Fe	1.897610	1.897610	5.692823
O	1.897610	0.000000	5.692823
O	0.000000	1.897610	5.692823
O	1.897610	1.897610	3.795213
As	0.000000	3.795213	0.000000
Fe	1.897610	5.692823	1.897610
O	1.897610	3.795213	1.897610
O	0.000000	5.692823	1.897610
O	1.897610	5.692823	0.000000
As	0.000000	3.795213	3.795213
Fe	1.897610	5.692823	5.692823
O	1.897610	3.795213	5.692823
O	0.000000	5.692823	5.692823
O	1.897610	5.692823	3.795213
As	3.795213	0.000000	0.000000
Fe	5.692823	1.897610	1.897610
O	5.692823	0.000000	1.897610
O	3.795213	1.897610	1.897610
O	5.692823	1.897610	0.000000
As	3.795213	0.000000	3.795213
Fe	5.692823	1.897610	5.692823
O	5.692823	0.000000	5.692823
O	3.795213	1.897610	5.692823
O	5.692823	1.897610	3.795213
As	3.795213	3.795213	0.000000
Fe	5.692823	5.692823	1.897610
O	5.692823	3.795213	1.897610
O	3.795213	5.692823	1.897610
O	5.692823	5.692823	0.000000
As	3.795213	3.795213	3.795213
Fe	5.692823	5.692823	5.692823
O	5.692823	3.795213	5.692823
O	3.795213	5.692823	5.692823
O	5.692823	5.692823	3.795213
