40

K	2.109868	2.109868	2.109868
O	2.109868	2.109868	0.000000
O	2.109868	0.000000	2.109868
O	0.000000	2.109868	2.109868
Tc	0.000000	0.000000	0.000000
K	2.109868	2.109868	6.329605
O	2.109868	2.109868	4.219737
O	2.109868	0.000000	6.329605
O	0.000000	2.109868	6.329605
Tc	0.000000	0.000000	4.219737
K	2.109868	6.329605	2.109868
O	2.109868	6.329605	0.000000
O	2.109868	4.219737	2.109868
O	0.000000	6.329605	2.109868
Tc	0.000000	4.219737	0.000000
K	2.109868	6.329605	6.329605
O	2.109868	6.329605	4.219737
O	2.109868	4.219737	6.329605
O	0.000000	6.329605	6.329605
Tc	0.000000	4.219737	4.219737
K	6.329605	2.109868	2.109868
O	6.329605	2.109868	0.000000
O	6.329605	0.000000	2.109868
O	4.219737	2.109868	2.109868
Tc	4.219737	0.000000	0.000000
K	6.329605	2.109868	6.329605
O	6.329605	2.109868	4.219737
O	6.329605	0.000000	6.329605
O	4.219737	2.109868	6.329605
Tc	4.219737	0.000000	4.219737
K	6.329605	6.329605	2.109868
O	6.329605	6.329605	0.000000
O	6.329605	4.219737	2.109868
O	4.219737	6.329605	2.109868
Tc	4.219737	4.219737	0.000000
K	6.329605	6.329605	6.329605
O	6.329605	6.329605	4.219737
O	6.329605	4.219737	6.329605
O	4.219737	6.329605	6.329605
Tc	4.219737	4.219737	4.219737
