40

O	0.000000	2.175586	2.175586
O	2.175586	0.000000	2.175586
O	2.175586	2.175586	0.000000
Tc	0.000000	0.000000	0.000000
Y	2.175586	2.175586	2.175586
O	0.000000	2.175586	6.526757
O	2.175586	0.000000	6.526757
O	2.175586	2.175586	4.351172
Tc	0.000000	0.000000	4.351172
Y	2.175586	2.175586	6.526757
O	0.000000	6.526757	2.175586
O	2.175586	4.351172	2.175586
O	2.175586	6.526757	0.000000
Tc	0.000000	4.351172	0.000000
Y	2.175586	6.526757	2.175586
O	0.000000	6.526757	6.526757
O	2.175586	4.351172	6.526757
O	2.175586	6.526757	4.351172
Tc	0.000000	4.351172	4.351172
Y	2.175586	6.526757	6.526757
O	4.351172	2.175586	2.175586
O	6.526757	0.000000	2.175586
O	6.526757	2.175586	0.000000
Tc	4.351172	0.000000	0.000000
Y	6.526757	2.175586	2.175586
O	4.351172	2.175586	6.526757
O	6.526757	0.000000	6.526757
O	6.526757	2.175586	4.351172
Tc	4.351172	0.000000	4.351172
Y	6.526757	2.175586	6.526757
O	4.351172	6.526757	2.175586
O	6.526757	4.351172	2.175586
O	6.526757	6.526757	0.000000
Tc	4.351172	4.351172	0.000000
Y	6.526757	6.526757	2.175586
O	4.351172	6.526757	6.526757
O	6.526757	4.351172	6.526757
O	6.526757	6.526757	4.351172
Tc	4.351172	4.351172	4.351172
Y	6.526757	6.526757	6.526757
