40

O	2.015686	2.015686	0.000000
O	0.000000	2.015686	2.015686
O	2.015686	0.000000	2.015686
Sb	2.015686	2.015686	2.015686
V	0.000000	0.000000	0.000000
O	2.015686	2.015686	4.031363
O	0.000000	2.015686	6.047049
O	2.015686	0.000000	6.047049
Sb	2.015686	2.015686	6.047049
V	0.000000	0.000000	4.031363
O	2.015686	6.047049	0.000000
O	0.000000	6.047049	2.015686
O	2.015686	4.031363	2.015686
Sb	2.015686	6.047049	2.015686
V	0.000000	4.031363	0.000000
O	2.015686	6.047049	4.031363
O	0.000000	6.047049	6.047049
O	2.015686	4.031363	6.047049
Sb	2.015686	6.047049	6.047049
V	0.000000	4.031363	4.031363
O	6.047049	2.015686	0.000000
O	4.031363	2.015686	2.015686
O	6.047049	0.000000	2.015686
Sb	6.047049	2.015686	2.015686
V	4.031363	0.000000	0.000000
O	6.047049	2.015686	4.031363
O	4.031363	2.015686	6.047049
O	6.047049	0.000000	6.047049
Sb	6.047049	2.015686	6.047049
V	4.031363	0.000000	4.031363
O	6.047049	6.047049	0.000000
O	4.031363	6.047049	2.015686
O	6.047049	4.031363	2.015686
Sb	6.047049	6.047049	2.015686
V	4.031363	4.031363	0.000000
O	6.047049	6.047049	4.031363
O	4.031363	6.047049	6.047049
O	6.047049	4.031363	6.047049
Sb	6.047049	6.047049	6.047049
V	4.031363	4.031363	4.031363
