40

O	0.000000	2.036967	2.036967
O	2.036967	0.000000	2.036967
O	2.036967	2.036967	0.000000
Sb	2.036967	2.036967	2.036967
V	0.000000	0.000000	0.000000
O	0.000000	2.036967	6.110901
O	2.036967	0.000000	6.110901
O	2.036967	2.036967	4.073934
Sb	2.036967	2.036967	6.110901
V	0.000000	0.000000	4.073934
O	0.000000	6.110901	2.036967
O	2.036967	4.073934	2.036967
O	2.036967	6.110901	0.000000
Sb	2.036967	6.110901	2.036967
V	0.000000	4.073934	0.000000
O	0.000000	6.110901	6.110901
O	2.036967	4.073934	6.110901
O	2.036967	6.110901	4.073934
Sb	2.036967	6.110901	6.110901
V	0.000000	4.073934	4.073934
O	4.073934	2.036967	2.036967
O	6.110901	0.000000	2.036967
O	6.110901	2.036967	0.000000
Sb	6.110901	2.036967	2.036967
V	4.073934	0.000000	0.000000
O	4.073934	2.036967	6.110901
O	6.110901	0.000000	6.110901
O	6.110901	2.036967	4.073934
Sb	6.110901	2.036967	6.110901
V	4.073934	0.000000	4.073934
O	4.073934	6.110901	2.036967
O	6.110901	4.073934	2.036967
O	6.110901	6.110901	0.000000
Sb	6.110901	6.110901	2.036967
V	4.073934	4.073934	0.000000
O	4.073934	6.110901	6.110901
O	6.110901	4.073934	6.110901
O	6.110901	6.110901	4.073934
Sb	6.110901	6.110901	6.110901
V	4.073934	4.073934	4.073934
