40

Ga	1.917054	1.917054	1.917054
Ho	0.000000	0.000000	0.000000
O	1.917054	1.917054	0.000000
O	1.917054	0.000000	1.917054
O	0.000000	1.917054	1.917054
Ga	1.917054	1.917054	5.751163
Ho	0.000000	0.000000	3.834109
O	1.917054	1.917054	3.834109
O	1.917054	0.000000	5.751163
O	0.000000	1.917054	5.751163
Ga	1.917054	5.751163	1.917054
Ho	0.000000	3.834109	0.000000
O	1.917054	5.751163	0.000000
O	1.917054	3.834109	1.917054
O	0.000000	5.751163	1.917054
Ga	1.917054	5.751163	5.751163
Ho	0.000000	3.834109	3.834109
O	1.917054	5.751163	3.834109
O	1.917054	3.834109	5.751163
O	0.000000	5.751163	5.751163
Ga	5.751163	1.917054	1.917054
Ho	3.834109	0.000000	0.000000
O	5.751163	1.917054	0.000000
O	5.751163	0.000000	1.917054
O	3.834109	1.917054	1.917054
Ga	5.751163	1.917054	5.751163
Ho	3.834109	0.000000	3.834109
O	5.751163	1.917054	3.834109
O	5.751163	0.000000	5.751163
O	3.834109	1.917054	5.751163
Ga	5.751163	5.751163	1.917054
Ho	3.834109	3.834109	0.000000
O	5.751163	5.751163	0.000000
O	5.751163	3.834109	1.917054
O	3.834109	5.751163	1.917054
Ga	5.751163	5.751163	5.751163
Ho	3.834109	3.834109	3.834109
O	5.751163	5.751163	3.834109
O	5.751163	3.834109	5.751163
O	3.834109	5.751163	5.751163
