40

O	0.000000	2.015099	2.015099
O	2.015099	0.000000	2.015099
O	2.015099	2.015099	0.000000
Sb	0.000000	0.000000	0.000000
W	2.015099	2.015099	2.015099
O	0.000000	2.015099	6.045298
O	2.015099	0.000000	6.045298
O	2.015099	2.015099	4.030199
Sb	0.000000	0.000000	4.030199
W	2.015099	2.015099	6.045298
O	0.000000	6.045298	2.015099
O	2.015099	4.030199	2.015099
O	2.015099	6.045298	0.000000
Sb	0.000000	4.030199	0.000000
W	2.015099	6.045298	2.015099
O	0.000000	6.045298	6.045298
O	2.015099	4.030199	6.045298
O	2.015099	6.045298	4.030199
Sb	0.000000	4.030199	4.030199
W	2.015099	6.045298	6.045298
O	4.030199	2.015099	2.015099
O	6.045298	0.000000	2.015099
O	6.045298	2.015099	0.000000
Sb	4.030199	0.000000	0.000000
W	6.045298	2.015099	2.015099
O	4.030199	2.015099	6.045298
O	6.045298	0.000000	6.045298
O	6.045298	2.015099	4.030199
Sb	4.030199	0.000000	4.030199
W	6.045298	2.015099	6.045298
O	4.030199	6.045298	2.015099
O	6.045298	4.030199	2.015099
O	6.045298	6.045298	0.000000
Sb	4.030199	4.030199	0.000000
W	6.045298	6.045298	2.015099
O	4.030199	6.045298	6.045298
O	6.045298	4.030199	6.045298
O	6.045298	6.045298	4.030199
Sb	4.030199	4.030199	4.030199
W	6.045298	6.045298	6.045298
