40

O	0.000000	2.059818	2.059818
O	2.059818	0.000000	2.059818
O	2.059818	2.059818	0.000000
Sb	2.059818	2.059818	2.059818
W	0.000000	0.000000	0.000000
O	0.000000	2.059818	6.179454
O	2.059818	0.000000	6.179454
O	2.059818	2.059818	4.119636
Sb	2.059818	2.059818	6.179454
W	0.000000	0.000000	4.119636
O	0.000000	6.179454	2.059818
O	2.059818	4.119636	2.059818
O	2.059818	6.179454	0.000000
Sb	2.059818	6.179454	2.059818
W	0.000000	4.119636	0.000000
O	0.000000	6.179454	6.179454
O	2.059818	4.119636	6.179454
O	2.059818	6.179454	4.119636
Sb	2.059818	6.179454	6.179454
W	0.000000	4.119636	4.119636
O	4.119636	2.059818	2.059818
O	6.179454	0.000000	2.059818
O	6.179454	2.059818	0.000000
Sb	6.179454	2.059818	2.059818
W	4.119636	0.000000	0.000000
O	4.119636	2.059818	6.179454
O	6.179454	0.000000	6.179454
O	6.179454	2.059818	4.119636
Sb	6.179454	2.059818	6.179454
W	4.119636	0.000000	4.119636
O	4.119636	6.179454	2.059818
O	6.179454	4.119636	2.059818
O	6.179454	6.179454	0.000000
Sb	6.179454	6.179454	2.059818
W	4.119636	4.119636	0.000000
O	4.119636	6.179454	6.179454
O	6.179454	4.119636	6.179454
O	6.179454	6.179454	4.119636
Sb	6.179454	6.179454	6.179454
W	4.119636	4.119636	4.119636
