40

Bi	0.000000	0.000000	0.000000
Fe	1.975453	1.958289	1.941421
O	1.965071	1.947997	-0.013236
O	1.965071	0.003617	1.948038
O	0.020765	1.964964	1.948038
Bi	0.020765	0.020585	3.909312
Fe	1.996218	1.978874	5.850733
O	1.985836	1.968582	3.896077
O	1.985836	0.024202	5.857351
O	0.041530	1.985549	5.857351
Bi	0.020765	3.909344	-0.013236
Fe	1.996218	5.867633	1.928185
O	1.985836	5.857341	-0.026471
O	1.985836	3.912961	1.934803
O	0.041530	5.874308	1.934803
Bi	0.041530	3.929929	3.896077
Fe	2.016984	5.888218	5.837497
O	2.006601	5.877925	3.882841
O	2.006601	3.933546	5.844115
O	0.062295	5.894893	5.844115
Bi	3.909376	-0.013351	-0.013236
Fe	5.884830	1.944938	1.928185
O	5.874447	1.934646	-0.026471
O	5.874447	-0.009733	1.934803
O	3.930142	1.951614	1.934803
Bi	3.930142	0.007234	3.896077
Fe	5.905595	1.965523	5.837497
O	5.895212	1.955231	3.882841
O	5.895212	0.010851	5.844115
O	3.950907	1.972199	5.844115
Bi	3.930142	3.895993	-0.026471
Fe	5.905595	5.854282	1.914949
O	5.895212	5.843990	-0.039707
O	5.895212	3.899610	1.921567
O	3.950907	5.860958	1.921567
Bi	3.950907	3.916578	3.882841
Fe	5.926360	5.874867	5.824262
O	5.915977	5.864575	3.869605
O	5.915977	3.920195	5.830879
O	3.971672	5.881543	5.830879
