40

Cd	2.111590	2.111590	2.111590
K	0.000000	0.000000	0.000000
O	2.111590	2.111590	0.000000
O	0.000000	2.111590	2.111590
O	2.111590	0.000000	2.111590
Cd	2.111590	2.111590	6.334786
K	0.000000	0.000000	4.223196
O	2.111590	2.111590	4.223196
O	0.000000	2.111590	6.334786
O	2.111590	0.000000	6.334786
Cd	2.111590	6.334786	2.111590
K	0.000000	4.223196	0.000000
O	2.111590	6.334786	0.000000
O	0.000000	6.334786	2.111590
O	2.111590	4.223196	2.111590
Cd	2.111590	6.334786	6.334786
K	0.000000	4.223196	4.223196
O	2.111590	6.334786	4.223196
O	0.000000	6.334786	6.334786
O	2.111590	4.223196	6.334786
Cd	6.334786	2.111590	2.111590
K	4.223196	0.000000	0.000000
O	6.334786	2.111590	0.000000
O	4.223196	2.111590	2.111590
O	6.334786	0.000000	2.111590
Cd	6.334786	2.111590	6.334786
K	4.223196	0.000000	4.223196
O	6.334786	2.111590	4.223196
O	4.223196	2.111590	6.334786
O	6.334786	0.000000	6.334786
Cd	6.334786	6.334786	2.111590
K	4.223196	4.223196	0.000000
O	6.334786	6.334786	0.000000
O	4.223196	6.334786	2.111590
O	6.334786	4.223196	2.111590
Cd	6.334786	6.334786	6.334786
K	4.223196	4.223196	4.223196
O	6.334786	6.334786	4.223196
O	4.223196	6.334786	6.334786
O	6.334786	4.223196	6.334786
