40

Ni	1.845221	1.845221	1.845221
O	1.845221	1.845221	0.000000
O	0.000000	1.845221	1.845221
O	1.845221	0.000000	1.845221
Tm	0.000000	0.000000	0.000000
Ni	1.845221	1.845221	5.535655
O	1.845221	1.845221	3.690434
O	0.000000	1.845221	5.535655
O	1.845221	0.000000	5.535655
Tm	0.000000	0.000000	3.690434
Ni	1.845221	5.535655	1.845221
O	1.845221	5.535655	0.000000
O	0.000000	5.535655	1.845221
O	1.845221	3.690434	1.845221
Tm	0.000000	3.690434	0.000000
Ni	1.845221	5.535655	5.535655
O	1.845221	5.535655	3.690434
O	0.000000	5.535655	5.535655
O	1.845221	3.690434	5.535655
Tm	0.000000	3.690434	3.690434
Ni	5.535655	1.845221	1.845221
O	5.535655	1.845221	0.000000
O	3.690434	1.845221	1.845221
O	5.535655	0.000000	1.845221
Tm	3.690434	0.000000	0.000000
Ni	5.535655	1.845221	5.535655
O	5.535655	1.845221	3.690434
O	3.690434	1.845221	5.535655
O	5.535655	0.000000	5.535655
Tm	3.690434	0.000000	3.690434
Ni	5.535655	5.535655	1.845221
O	5.535655	5.535655	0.000000
O	3.690434	5.535655	1.845221
O	5.535655	3.690434	1.845221
Tm	3.690434	3.690434	0.000000
Ni	5.535655	5.535655	5.535655
O	5.535655	5.535655	3.690434
O	3.690434	5.535655	5.535655
O	5.535655	3.690434	5.535655
Tm	3.690434	3.690434	3.690434
