40

O	1.941930	1.941930	0.000000
O	0.000000	1.941930	1.941930
O	1.941930	0.000000	1.941930
Re	1.941930	1.941930	1.941930
Ru	0.000000	0.000000	0.000000
O	1.941930	1.941930	3.883868
O	0.000000	1.941930	5.825798
O	1.941930	0.000000	5.825798
Re	1.941930	1.941930	5.825798
Ru	0.000000	0.000000	3.883868
O	1.941930	5.825798	0.000000
O	0.000000	5.825798	1.941930
O	1.941930	3.883868	1.941930
Re	1.941930	5.825798	1.941930
Ru	0.000000	3.883868	0.000000
O	1.941930	5.825798	3.883868
O	0.000000	5.825798	5.825798
O	1.941930	3.883868	5.825798
Re	1.941930	5.825798	5.825798
Ru	0.000000	3.883868	3.883868
O	5.825798	1.941930	0.000000
O	3.883868	1.941930	1.941930
O	5.825798	0.000000	1.941930
Re	5.825798	1.941930	1.941930
Ru	3.883868	0.000000	0.000000
O	5.825798	1.941930	3.883868
O	3.883868	1.941930	5.825798
O	5.825798	0.000000	5.825798
Re	5.825798	1.941930	5.825798
Ru	3.883868	0.000000	3.883868
O	5.825798	5.825798	0.000000
O	3.883868	5.825798	1.941930
O	5.825798	3.883868	1.941930
Re	5.825798	5.825798	1.941930
Ru	3.883868	3.883868	0.000000
O	5.825798	5.825798	3.883868
O	3.883868	5.825798	5.825798
O	5.825798	3.883868	5.825798
Re	5.825798	5.825798	5.825798
Ru	3.883868	3.883868	3.883868
