40

Mo	0.000000	0.000000	0.000000
O	0.000000	1.992136	1.992136
O	1.992136	0.000000	1.992136
O	1.992136	1.992136	0.000000
W	1.992136	1.992136	1.992136
Mo	0.000000	0.000000	3.984271
O	0.000000	1.992136	5.976407
O	1.992136	0.000000	5.976407
O	1.992136	1.992136	3.984271
W	1.992136	1.992136	5.976407
Mo	0.000000	3.984271	0.000000
O	0.000000	5.976407	1.992136
O	1.992136	3.984271	1.992136
O	1.992136	5.976407	0.000000
W	1.992136	5.976407	1.992136
Mo	0.000000	3.984271	3.984271
O	0.000000	5.976407	5.976407
O	1.992136	3.984271	5.976407
O	1.992136	5.976407	3.984271
W	1.992136	5.976407	5.976407
Mo	3.984271	0.000000	0.000000
O	3.984271	1.992136	1.992136
O	5.976407	0.000000	1.992136
O	5.976407	1.992136	0.000000
W	5.976407	1.992136	1.992136
Mo	3.984271	0.000000	3.984271
O	3.984271	1.992136	5.976407
O	5.976407	0.000000	5.976407
O	5.976407	1.992136	3.984271
W	5.976407	1.992136	5.976407
Mo	3.984271	3.984271	0.000000
O	3.984271	5.976407	1.992136
O	5.976407	3.984271	1.992136
O	5.976407	5.976407	0.000000
W	5.976407	5.976407	1.992136
Mo	3.984271	3.984271	3.984271
O	3.984271	5.976407	5.976407
O	5.976407	3.984271	5.976407
O	5.976407	5.976407	3.984271
W	5.976407	5.976407	5.976407
