40

O	1.950710	1.950710	0.000000
O	0.000000	1.950710	1.950710
O	1.950710	0.000000	1.950710
Re	1.950710	1.950710	1.950710
Tc_pv	0.000000	0.000000	0.000000
O	1.950710	1.950710	3.901429
O	0.000000	1.950710	5.852139
O	1.950710	0.000000	5.852139
Re	1.950710	1.950710	5.852139
Tc_pv	0.000000	0.000000	3.901429
O	1.950710	5.852139	0.000000
O	0.000000	5.852139	1.950710
O	1.950710	3.901429	1.950710
Re	1.950710	5.852139	1.950710
Tc_pv	0.000000	3.901429	0.000000
O	1.950710	5.852139	3.901429
O	0.000000	5.852139	5.852139
O	1.950710	3.901429	5.852139
Re	1.950710	5.852139	5.852139
Tc_pv	0.000000	3.901429	3.901429
O	5.852139	1.950710	0.000000
O	3.901429	1.950710	1.950710
O	5.852139	0.000000	1.950710
Re	5.852139	1.950710	1.950710
Tc_pv	3.901429	0.000000	0.000000
O	5.852139	1.950710	3.901429
O	3.901429	1.950710	5.852139
O	5.852139	0.000000	5.852139
Re	5.852139	1.950710	5.852139
Tc_pv	3.901429	0.000000	3.901429
O	5.852139	5.852139	0.000000
O	3.901429	5.852139	1.950710
O	5.852139	3.901429	1.950710
Re	5.852139	5.852139	1.950710
Tc_pv	3.901429	3.901429	0.000000
O	5.852139	5.852139	3.901429
O	3.901429	5.852139	5.852139
O	5.852139	3.901429	5.852139
Re	5.852139	5.852139	5.852139
Tc_pv	3.901429	3.901429	3.901429
