112

As	0.000000	0.000000	0.000000
As	2.375733	-2.376158	-2.376158
Ho	-1.187867	-1.188079	-3.564237
Ho	3.563590	1.188079	-1.188079
Ho	5.939324	-1.188079	-1.188079
Ho	1.187867	1.188079	-3.564237
O	3.680239	-1.070612	-1.070612
O	-1.071217	1.070612	-3.681704
O	1.071217	-1.070612	-3.681704
O	1.304506	1.305546	-1.305546
O	5.822674	1.070612	-1.070612
O	1.304506	3.446771	-3.446771
O	3.446951	3.446771	-1.305546
O	3.446951	1.305546	-3.446771
As	4.751458	4.752316	0.000000
As	7.127192	2.376158	-2.376158
Ho	3.563592	3.564237	-3.564237
Ho	8.315048	5.940395	-1.188079
Ho	10.690782	3.564237	-1.188079
Ho	5.939325	5.940395	-3.564237
O	8.431698	3.681704	-1.070612
O	3.680241	5.822929	-3.681704
O	5.822676	3.681704	-3.681704
O	6.055964	6.057862	-1.305546
O	10.574133	5.822929	-1.070612
O	6.055964	8.199087	-3.446771
O	8.198409	8.199087	-1.305546
O	8.198409	6.057862	-3.446771
As	-4.751458	0.000000	-4.752316
As	-2.375725	-2.376158	-7.128475
Ho	-5.939325	-1.188079	-8.316554
Ho	-1.187868	1.188079	-5.940395
Ho	1.187865	-1.188079	-5.940395
Ho	-3.563592	1.188079	-8.316554
O	-1.071219	-1.070612	-5.822929
O	-5.822676	1.070612	-8.434021
O	-3.680241	-1.070612	-8.434021
O	-3.446952	1.305546	-6.057862
O	1.071216	1.070612	-5.822929
O	-3.446952	3.446771	-8.199087
O	-1.304507	3.446771	-6.057862
O	-1.304507	1.305546	-8.199087
As	0.000000	4.752316	-4.752316
As	2.375733	2.376158	-7.128475
Ho	-1.187867	3.564237	-8.316554
Ho	3.563590	5.940395	-5.940395
Ho	5.939324	3.564237	-5.940395
Ho	1.187867	5.940395	-8.316554
O	3.680239	3.681704	-5.822929
O	-1.071217	5.822929	-8.434021
O	1.071217	3.681704	-8.434021
O	1.304506	6.057862	-6.057862
O	5.822674	5.822929	-5.822929
O	1.304506	8.199087	-8.199087
O	3.446951	8.199087	-6.057862
O	3.446951	6.057862	-8.199087
As	4.751458	-4.752316	0.000000
As	7.127192	-7.128475	-2.376158
Ho	3.563592	-5.940395	-3.564237
Ho	8.315048	-3.564237	-1.188079
Ho	10.690782	-5.940395	-1.188079
Ho	5.939325	-3.564237	-3.564237
O	8.431698	-5.822929	-1.070612
O	3.680241	-3.681704	-3.681704
O	5.822676	-5.822929	-3.681704
O	6.055964	-3.446770	-1.305546
O	10.574133	-3.681704	-1.070612
O	6.055964	-1.305546	-3.446771
O	8.198409	-1.305546	-1.305546
O	8.198409	-3.446770	-3.446771
As	9.502917	0.000000	0.000000
As	11.878650	-2.376158	-2.376158
Ho	8.315050	-1.188079	-3.564237
Ho	13.066507	1.188079	-1.188079
Ho	15.442240	-1.188079	-1.188079
Ho	10.690783	1.188079	-3.564237
O	13.183156	-1.070612	-1.070612
O	8.431699	1.070612	-3.681704
O	10.574134	-1.070612	-3.681704
O	10.807423	1.305546	-1.305546
O	15.325591	1.070612	-1.070612
O	10.807423	3.446771	-3.446771
O	12.949868	3.446771	-1.305546
O	12.949868	1.305546	-3.446771
As	0.000000	-4.752316	-4.752316
As	2.375733	-7.128475	-7.128475
Ho	-1.187867	-5.940395	-8.316554
Ho	3.563590	-3.564237	-5.940395
Ho	5.939324	-5.940395	-5.940395
Ho	1.187867	-3.564237	-8.316554
O	3.680239	-5.822929	-5.822929
O	-1.071217	-3.681704	-8.434021
O	1.071217	-5.822929	-8.434021
O	1.304506	-3.446770	-6.057862
O	5.822674	-3.681704	-5.822929
O	1.304506	-1.305546	-8.199087
O	3.446951	-1.305546	-6.057862
O	3.446951	-3.446770	-8.199087
As	4.751458	0.000000	-4.752316
As	7.127192	-2.376158	-7.128475
Ho	3.563592	-1.188079	-8.316554
Ho	8.315048	1.188079	-5.940395
Ho	10.690782	-1.188079	-5.940395
Ho	5.939325	1.188079	-8.316554
O	8.431698	-1.070612	-5.822929
O	3.680241	1.070612	-8.434021
O	5.822676	-1.070612	-8.434021
O	6.055964	1.305546	-6.057862
O	10.574133	1.070612	-5.822929
O	6.055964	3.446771	-8.199087
O	8.198409	3.446771	-6.057862
O	8.198409	1.305546	-8.199087
