40

O	0.000000	2.081121	2.081121
O	2.081121	0.000000	2.081121
O	2.081121	2.081121	0.000000
Pd	0.000000	0.000000	0.000000
Zr	2.081121	2.081121	2.081121
O	0.000000	2.081121	6.243362
O	2.081121	0.000000	6.243362
O	2.081121	2.081121	4.162241
Pd	0.000000	0.000000	4.162241
Zr	2.081121	2.081121	6.243362
O	0.000000	6.243362	2.081121
O	2.081121	4.162241	2.081121
O	2.081121	6.243362	0.000000
Pd	0.000000	4.162241	0.000000
Zr	2.081121	6.243362	2.081121
O	0.000000	6.243362	6.243362
O	2.081121	4.162241	6.243362
O	2.081121	6.243362	4.162241
Pd	0.000000	4.162241	4.162241
Zr	2.081121	6.243362	6.243362
O	4.162241	2.081121	2.081121
O	6.243362	0.000000	2.081121
O	6.243362	2.081121	0.000000
Pd	4.162241	0.000000	0.000000
Zr	6.243362	2.081121	2.081121
O	4.162241	2.081121	6.243362
O	6.243362	0.000000	6.243362
O	6.243362	2.081121	4.162241
Pd	4.162241	0.000000	4.162241
Zr	6.243362	2.081121	6.243362
O	4.162241	6.243362	2.081121
O	6.243362	4.162241	2.081121
O	6.243362	6.243362	0.000000
Pd	4.162241	4.162241	0.000000
Zr	6.243362	6.243362	2.081121
O	4.162241	6.243362	6.243362
O	6.243362	4.162241	6.243362
O	6.243362	6.243362	4.162241
Pd	4.162241	4.162241	4.162241
Zr	6.243362	6.243362	6.243362
