112

Ge	0.000000	0.000000	0.000000
Ge	2.581121	-2.587516	-2.587516
O	-1.001742	0.999797	-4.175236
O	4.160500	-0.999797	-0.999797
O	1.001742	-0.999797	-4.175236
O	1.579379	1.587720	-1.587720
O	6.163983	0.999797	-0.999797
O	1.579379	3.587313	-3.587313
O	3.582872	3.587313	-1.587720
O	3.582872	1.587720	-3.587313
Pa	-1.290560	-1.293763	-3.881280
Pa	6.452802	-1.293763	-1.293763
Pa	1.290560	1.293763	-3.881280
Pa	3.871681	1.293763	-1.293763
Ge	5.162244	5.175043	0.000000
Ge	7.743364	2.587526	-2.587516
O	4.160502	6.174840	-4.175236
O	9.322743	4.175246	-0.999797
O	6.163986	4.175246	-4.175236
O	6.741623	6.762763	-1.587720
O	11.326227	6.174840	-0.999797
O	6.741623	8.762356	-3.587313
O	8.745116	8.762356	-1.587720
O	8.745116	6.762763	-3.587313
Pa	3.871683	3.881280	-3.881280
Pa	11.615046	3.881280	-1.293763
Pa	6.452804	6.468806	-3.881280
Pa	9.033925	6.468806	-1.293763
Ge	-5.162244	0.000000	-5.175043
Ge	-2.581123	-2.587516	-7.762559
O	-6.163986	0.999797	-9.350279
O	-1.001744	-0.999797	-6.174840
O	-4.160502	-0.999797	-9.350279
O	-3.582865	1.587720	-6.762763
O	1.001739	0.999797	-6.174840
O	-3.582865	3.587313	-8.762356
O	-1.579371	3.587313	-6.762763
O	-1.579371	1.587720	-8.762356
Pa	-6.452804	-1.293763	-9.056323
Pa	1.290558	-1.293763	-6.468806
Pa	-3.871683	1.293763	-9.056323
Pa	-1.290563	1.293763	-6.468806
Ge	0.000000	5.175043	-5.175043
Ge	2.581121	2.587526	-7.762559
O	-1.001742	6.174840	-9.350279
O	4.160500	4.175246	-6.174840
O	1.001742	4.175246	-9.350279
O	1.579379	6.762763	-6.762763
O	6.163983	6.174840	-6.174840
O	1.579379	8.762356	-8.762356
O	3.582872	8.762356	-6.762763
O	3.582872	6.762763	-8.762356
Pa	-1.290560	3.881280	-9.056323
Pa	6.452802	3.881280	-6.468806
Pa	1.290560	6.468806	-9.056323
Pa	3.871681	6.468806	-6.468806
Ge	5.162244	-5.175043	0.000000
Ge	7.743364	-7.762559	-2.587516
O	4.160502	-4.175246	-4.175236
O	9.322743	-6.174840	-0.999797
O	6.163986	-6.174840	-4.175236
O	6.741623	-3.587323	-1.587720
O	11.326227	-4.175246	-0.999797
O	6.741623	-1.587730	-3.587313
O	8.745116	-1.587730	-1.587720
O	8.745116	-3.587323	-3.587313
Pa	3.871683	-6.468806	-3.881280
Pa	11.615046	-6.468806	-1.293763
Pa	6.452804	-3.881280	-3.881280
Pa	9.033925	-3.881280	-1.293763
Ge	10.324488	0.000000	0.000000
Ge	12.905608	-2.587516	-2.587516
O	9.322746	0.999797	-4.175236
O	14.484987	-0.999797	-0.999797
O	11.326229	-0.999797	-4.175236
O	11.903867	1.587720	-1.587720
O	16.488471	0.999797	-0.999797
O	11.903866	3.587313	-3.587313
O	13.907360	3.587313	-1.587720
O	13.907360	1.587720	-3.587313
Pa	9.033927	-1.293763	-3.881280
Pa	16.777289	-1.293763	-1.293763
Pa	11.615048	1.293763	-3.881280
Pa	14.196169	1.293763	-1.293763
Ge	0.000000	-5.175043	-5.175043
Ge	2.581121	-7.762559	-7.762559
O	-1.001742	-4.175246	-9.350279
O	4.160500	-6.174840	-6.174840
O	1.001742	-6.174840	-9.350279
O	1.579379	-3.587323	-6.762763
O	6.163983	-4.175246	-6.174840
O	1.579379	-1.587730	-8.762356
O	3.582872	-1.587730	-6.762763
O	3.582872	-3.587323	-8.762356
Pa	-1.290560	-6.468806	-9.056323
Pa	6.452802	-6.468806	-6.468806
Pa	1.290560	-3.881280	-9.056323
Pa	3.871681	-3.881280	-6.468806
Ge	5.162244	0.000000	-5.175043
Ge	7.743364	-2.587516	-7.762559
O	4.160502	0.999797	-9.350279
O	9.322743	-0.999797	-6.174840
O	6.163986	-0.999797	-9.350279
O	6.741623	1.587720	-6.762763
O	11.326227	0.999797	-6.174840
O	6.741623	3.587313	-8.762356
O	8.745116	3.587313	-6.762763
O	8.745116	1.587720	-8.762356
Pa	3.871683	-1.293763	-9.056323
Pa	11.615046	-1.293763	-6.468806
Pa	6.452804	1.293763	-9.056323
Pa	9.033925	1.293763	-6.468806
