112

Li	0.000000	0.000000	0.000000
Li	2.382274	-2.396255	-2.396255
O	3.677551	-1.113939	-1.113939
O	-1.086998	1.113939	-3.678571
O	1.086998	-1.113939	-3.678571
O	1.295276	1.282316	-1.282316
O	5.851547	1.113939	-1.113939
O	1.295276	3.510194	-3.510194
O	3.469273	3.510194	-1.282316
O	3.469273	1.282316	-3.510194
Pu	-1.191137	-1.198127	-3.594382
Pu	3.573412	1.198127	-1.198127
Pu	5.955686	-1.198127	-1.198127
Pu	1.191137	1.198127	-3.594382
Li	4.764549	4.792510	0.000000
Li	7.146823	2.396255	-2.396255
O	8.442099	3.678571	-1.113939
O	3.677551	5.906449	-3.678571
O	5.851547	3.678571	-3.678571
O	6.059825	6.074826	-1.282316
O	10.616096	5.906449	-1.113939
O	6.059825	8.302703	-3.510194
O	8.233821	8.302703	-1.282316
O	8.233821	6.074826	-3.510194
Pu	3.573412	3.594382	-3.594382
Pu	8.337960	5.990637	-1.198127
Pu	10.720235	3.594382	-1.198127
Pu	5.955686	5.990637	-3.594382
Li	-4.764549	0.000000	-4.792510
Li	-2.382274	-2.396255	-7.188765
O	-1.086998	-1.113939	-5.906449
O	-5.851547	1.113939	-8.471081
O	-3.677551	-1.113939	-8.471081
O	-3.469273	1.282316	-6.074826
O	1.086998	1.113939	-5.906449
O	-3.469273	3.510194	-8.302703
O	-1.295276	3.510194	-6.074826
O	-1.295276	1.282316	-8.302703
Pu	-5.955686	-1.198127	-8.386892
Pu	-1.191137	1.198127	-5.990637
Pu	1.191137	-1.198127	-5.990637
Pu	-3.573412	1.198127	-8.386892
Li	0.000000	4.792510	-4.792510
Li	2.382274	2.396255	-7.188765
O	3.677551	3.678571	-5.906449
O	-1.086998	5.906449	-8.471081
O	1.086998	3.678571	-8.471081
O	1.295276	6.074826	-6.074826
O	5.851547	5.906449	-5.906449
O	1.295276	8.302703	-8.302703
O	3.469273	8.302703	-6.074826
O	3.469273	6.074826	-8.302703
Pu	-1.191137	3.594382	-8.386892
Pu	3.573412	5.990637	-5.990637
Pu	5.955686	3.594382	-5.990637
Pu	1.191137	5.990637	-8.386892
Li	4.764549	-4.792510	0.000000
Li	7.146823	-7.188765	-2.396255
O	8.442099	-5.906448	-1.113939
O	3.677551	-3.678571	-3.678571
O	5.851547	-5.906448	-3.678571
O	6.059825	-3.510194	-1.282316
O	10.616096	-3.678571	-1.113939
O	6.059825	-1.282316	-3.510194
O	8.233821	-1.282316	-1.282316
O	8.233821	-3.510194	-3.510194
Pu	3.573412	-5.990637	-3.594382
Pu	8.337960	-3.594382	-1.198127
Pu	10.720235	-5.990637	-1.198127
Pu	5.955686	-3.594382	-3.594382
Li	9.529097	0.000000	0.000000
Li	11.911372	-2.396255	-2.396255
O	13.206648	-1.113939	-1.113939
O	8.442099	1.113939	-3.678571
O	10.616096	-1.113939	-3.678571
O	10.824374	1.282316	-1.282316
O	15.380644	1.113939	-1.113939
O	10.824374	3.510194	-3.510194
O	12.998370	3.510194	-1.282316
O	12.998370	1.282316	-3.510194
Pu	8.337960	-1.198127	-3.594382
Pu	13.102509	1.198127	-1.198127
Pu	15.484783	-1.198127	-1.198127
Pu	10.720235	1.198127	-3.594382
Li	0.000000	-4.792510	-4.792510
Li	2.382274	-7.188765	-7.188765
O	3.677551	-5.906448	-5.906449
O	-1.086998	-3.678571	-8.471081
O	1.086998	-5.906448	-8.471081
O	1.295276	-3.510194	-6.074826
O	5.851547	-3.678571	-5.906449
O	1.295276	-1.282316	-8.302703
O	3.469273	-1.282316	-6.074826
O	3.469273	-3.510194	-8.302703
Pu	-1.191137	-5.990637	-8.386892
Pu	3.573412	-3.594382	-5.990637
Pu	5.955686	-5.990637	-5.990637
Pu	1.191137	-3.594382	-8.386892
Li	4.764549	0.000000	-4.792510
Li	7.146823	-2.396255	-7.188765
O	8.442099	-1.113939	-5.906449
O	3.677551	1.113939	-8.471081
O	5.851547	-1.113939	-8.471081
O	6.059825	1.282316	-6.074826
O	10.616096	1.113939	-5.906449
O	6.059825	3.510194	-8.302703
O	8.233821	3.510194	-6.074826
O	8.233821	1.282316	-8.302703
Pu	3.573412	-1.198127	-8.386892
Pu	8.337960	1.198127	-5.990637
Pu	10.720235	-1.198127	-5.990637
Pu	5.955686	1.198127	-8.386892
