112

Ca	0.000000	0.000000	0.000000
Ca	2.450471	-2.450822	-2.450822
O	3.781119	-1.119500	-1.119500
O	-1.119814	1.119500	-3.782143
O	1.119814	-1.119500	-3.782143
O	1.330648	1.331322	-1.331322
O	6.020756	1.119500	-1.119500
O	1.330648	3.570322	-3.570322
O	3.570285	3.570322	-1.331322
O	3.570285	1.331322	-3.570322
Sm	-1.225236	-1.225406	-3.676228
Sm	3.675697	1.225406	-1.225406
Sm	1.225236	1.225406	-3.676228
Sm	6.126168	-1.225406	-1.225406
Ca	4.900934	4.901641	0.000000
Ca	7.351406	2.450819	-2.450822
O	8.682053	3.782141	-1.119500
O	3.781121	6.021141	-3.782143
O	6.020748	3.782141	-3.782143
O	6.231582	6.232963	-1.331322
O	10.921691	6.021141	-1.119500
O	6.231582	8.471963	-3.570322
O	8.471219	8.471963	-1.331322
O	8.471219	6.232963	-3.570322
Sm	3.675699	3.676235	-3.676228
Sm	8.576631	6.127047	-1.225406
Sm	6.126170	6.127047	-3.676228
Sm	11.027103	3.676235	-1.225406
Ca	-4.900934	0.000000	-4.901641
Ca	-2.450463	-2.450822	-7.352463
O	-1.119815	-1.119500	-6.021141
O	-6.020748	1.119500	-8.683785
O	-3.781121	-1.119500	-8.683785
O	-3.570287	1.331322	-6.232963
O	1.119822	1.119500	-6.021141
O	-3.570287	3.570322	-8.471963
O	-1.330649	3.570322	-6.232963
O	-1.330649	1.331322	-8.471963
Sm	-6.126170	-1.225406	-8.577869
Sm	-1.225237	1.225406	-6.127047
Sm	-3.675699	1.225406	-8.577869
Sm	1.225234	-1.225406	-6.127047
Ca	0.000000	4.901641	-4.901641
Ca	2.450471	2.450819	-7.352463
O	3.781119	3.782141	-6.021141
O	-1.119814	6.021141	-8.683785
O	1.119814	3.782141	-8.683785
O	1.330648	6.232963	-6.232963
O	6.020756	6.021141	-6.021141
O	1.330648	8.471963	-8.471963
O	3.570285	8.471963	-6.232963
O	3.570285	6.232963	-8.471963
Sm	-1.225236	3.676235	-8.577869
Sm	3.675697	6.127047	-6.127047
Sm	1.225236	6.127047	-8.577869
Sm	6.126168	3.676235	-6.127047
Ca	4.900934	-4.901641	0.000000
Ca	7.351406	-7.352463	-2.450822
O	8.682053	-6.021141	-1.119500
O	3.781121	-3.782141	-3.782143
O	6.020748	-6.021141	-3.782143
O	6.231582	-3.570319	-1.331322
O	10.921691	-3.782141	-1.119500
O	6.231582	-1.331319	-3.570322
O	8.471219	-1.331319	-1.331322
O	8.471219	-3.570319	-3.570322
Sm	3.675699	-6.127047	-3.676228
Sm	8.576631	-3.676235	-1.225406
Sm	6.126170	-3.676235	-3.676228
Sm	11.027103	-6.127047	-1.225406
Ca	9.801869	0.000000	0.000000
Ca	12.252340	-2.450822	-2.450822
O	13.582988	-1.119500	-1.119500
O	8.682055	1.119500	-3.782143
O	10.921682	-1.119500	-3.782143
O	11.132516	1.331322	-1.331322
O	15.822625	1.119500	-1.119500
O	11.132516	3.570322	-3.570322
O	13.372154	3.570322	-1.331322
O	13.372154	1.331322	-3.570322
Sm	8.576633	-1.225406	-3.676228
Sm	13.477566	1.225406	-1.225406
Sm	11.027104	1.225406	-3.676228
Sm	15.928037	-1.225406	-1.225406
Ca	0.000000	-4.901641	-4.901641
Ca	2.450471	-7.352463	-7.352463
O	3.781119	-6.021141	-6.021141
O	-1.119814	-3.782141	-8.683785
O	1.119814	-6.021141	-8.683785
O	1.330648	-3.570319	-6.232963
O	6.020756	-3.782141	-6.021141
O	1.330648	-1.331319	-8.471963
O	3.570285	-1.331319	-6.232963
O	3.570285	-3.570319	-8.471963
Sm	-1.225236	-6.127047	-8.577869
Sm	3.675697	-3.676235	-6.127047
Sm	1.225236	-3.676235	-8.577869
Sm	6.126168	-6.127047	-6.127047
Ca	4.900934	0.000000	-4.901641
Ca	7.351406	-2.450822	-7.352463
O	8.682053	-1.119500	-6.021141
O	3.781121	1.119500	-8.683785
O	6.020748	-1.119500	-8.683785
O	6.231582	1.331322	-6.232963
O	10.921691	1.119500	-6.021141
O	6.231582	3.570322	-8.471963
O	8.471219	3.570322	-6.232963
O	8.471219	1.331322	-8.471963
Sm	3.675699	-1.225406	-8.577869
Sm	8.576631	1.225406	-6.127047
Sm	6.126170	1.225406	-8.577869
Sm	11.027103	-1.225406	-6.127047
