40

O	2.219830	2.219830	0.000000
O	0.000000	2.219830	2.219830
O	2.219830	0.000000	2.219830
Pa	2.219830	2.219830	2.219830
Pb_d	0.000000	0.000000	0.000000
O	2.219830	2.219830	4.439672
O	0.000000	2.219830	6.659502
O	2.219830	0.000000	6.659502
Pa	2.219830	2.219830	6.659502
Pb_d	0.000000	0.000000	4.439672
O	2.219830	6.659502	0.000000
O	0.000000	6.659502	2.219830
O	2.219830	4.439672	2.219830
Pa	2.219830	6.659502	2.219830
Pb_d	0.000000	4.439672	0.000000
O	2.219830	6.659502	4.439672
O	0.000000	6.659502	6.659502
O	2.219830	4.439672	6.659502
Pa	2.219830	6.659502	6.659502
Pb_d	0.000000	4.439672	4.439672
O	6.659502	2.219830	0.000000
O	4.439672	2.219830	2.219830
O	6.659502	0.000000	2.219830
Pa	6.659502	2.219830	2.219830
Pb_d	4.439672	0.000000	0.000000
O	6.659502	2.219830	4.439672
O	4.439672	2.219830	6.659502
O	6.659502	0.000000	6.659502
Pa	6.659502	2.219830	6.659502
Pb_d	4.439672	0.000000	4.439672
O	6.659502	6.659502	0.000000
O	4.439672	6.659502	2.219830
O	6.659502	4.439672	2.219830
Pa	6.659502	6.659502	2.219830
Pb_d	4.439672	4.439672	0.000000
O	6.659502	6.659502	4.439672
O	4.439672	6.659502	6.659502
O	6.659502	4.439672	6.659502
Pa	6.659502	6.659502	6.659502
Pb_d	4.439672	4.439672	4.439672
