40

N	0.000000	0.000000	0.000000
O	0.000000	1.996769	1.996769
O	1.996769	0.000000	1.996769
O	1.996769	1.996769	0.000000
Ta	1.996769	1.996769	1.996769
N	0.000000	0.000000	3.993537
O	0.000000	1.996769	5.990306
O	1.996769	0.000000	5.990306
O	1.996769	1.996769	3.993537
Ta	1.996769	1.996769	5.990306
N	0.000000	3.993537	0.000000
O	0.000000	5.990306	1.996769
O	1.996769	3.993537	1.996769
O	1.996769	5.990306	0.000000
Ta	1.996769	5.990306	1.996769
N	0.000000	3.993537	3.993537
O	0.000000	5.990306	5.990306
O	1.996769	3.993537	5.990306
O	1.996769	5.990306	3.993537
Ta	1.996769	5.990306	5.990306
N	3.993537	0.000000	0.000000
O	3.993537	1.996769	1.996769
O	5.990306	0.000000	1.996769
O	5.990306	1.996769	0.000000
Ta	5.990306	1.996769	1.996769
N	3.993537	0.000000	3.993537
O	3.993537	1.996769	5.990306
O	5.990306	0.000000	5.990306
O	5.990306	1.996769	3.993537
Ta	5.990306	1.996769	5.990306
N	3.993537	3.993537	0.000000
O	3.993537	5.990306	1.996769
O	5.990306	3.993537	1.996769
O	5.990306	5.990306	0.000000
Ta	5.990306	5.990306	1.996769
N	3.993537	3.993537	3.993537
O	3.993537	5.990306	5.990306
O	5.990306	3.993537	5.990306
O	5.990306	5.990306	3.993537
Ta	5.990306	5.990306	5.990306
