40

N	1.765576	1.765576	1.765576
O	0.000000	1.765576	1.765576
O	1.765576	0.000000	1.765576
O	1.765576	1.765576	0.000000
Ta	0.000000	0.000000	0.000000
N	1.765576	1.765576	5.296727
O	0.000000	1.765576	5.296727
O	1.765576	0.000000	5.296727
O	1.765576	1.765576	3.531151
Ta	0.000000	0.000000	3.531151
N	1.765576	5.296727	1.765576
O	0.000000	5.296727	1.765576
O	1.765576	3.531151	1.765576
O	1.765576	5.296727	0.000000
Ta	0.000000	3.531151	0.000000
N	1.765576	5.296727	5.296727
O	0.000000	5.296727	5.296727
O	1.765576	3.531151	5.296727
O	1.765576	5.296727	3.531151
Ta	0.000000	3.531151	3.531151
N	5.296727	1.765576	1.765576
O	3.531151	1.765576	1.765576
O	5.296727	0.000000	1.765576
O	5.296727	1.765576	0.000000
Ta	3.531151	0.000000	0.000000
N	5.296727	1.765576	5.296727
O	3.531151	1.765576	5.296727
O	5.296727	0.000000	5.296727
O	5.296727	1.765576	3.531151
Ta	3.531151	0.000000	3.531151
N	5.296727	5.296727	1.765576
O	3.531151	5.296727	1.765576
O	5.296727	3.531151	1.765576
O	5.296727	5.296727	0.000000
Ta	3.531151	3.531151	0.000000
N	5.296727	5.296727	5.296727
O	3.531151	5.296727	5.296727
O	5.296727	3.531151	5.296727
O	5.296727	5.296727	3.531151
Ta	3.531151	3.531151	3.531151
