40

Al	0.000000	0.000000	0.000000
O	1.969060	0.000000	1.969060
O	0.000000	1.969060	1.969060
O	1.969060	1.969060	0.000000
Pt	1.969060	1.969060	1.969060
Al	0.000000	0.000000	3.938121
O	1.969060	0.000000	5.907181
O	0.000000	1.969060	5.907181
O	1.969060	1.969060	3.938121
Pt	1.969060	1.969060	5.907181
Al	0.000000	3.938121	0.000000
O	1.969060	3.938121	1.969060
O	0.000000	5.907181	1.969060
O	1.969060	5.907181	0.000000
Pt	1.969060	5.907181	1.969060
Al	0.000000	3.938121	3.938121
O	1.969060	3.938121	5.907181
O	0.000000	5.907181	5.907181
O	1.969060	5.907181	3.938121
Pt	1.969060	5.907181	5.907181
Al	3.938121	0.000000	0.000000
O	5.907181	0.000000	1.969060
O	3.938121	1.969060	1.969060
O	5.907181	1.969060	0.000000
Pt	5.907181	1.969060	1.969060
Al	3.938121	0.000000	3.938121
O	5.907181	0.000000	5.907181
O	3.938121	1.969060	5.907181
O	5.907181	1.969060	3.938121
Pt	5.907181	1.969060	5.907181
Al	3.938121	3.938121	0.000000
O	5.907181	3.938121	1.969060
O	3.938121	5.907181	1.969060
O	5.907181	5.907181	0.000000
Pt	5.907181	5.907181	1.969060
Al	3.938121	3.938121	3.938121
O	5.907181	3.938121	5.907181
O	3.938121	5.907181	5.907181
O	5.907181	5.907181	3.938121
Pt	5.907181	5.907181	5.907181
