40

O	1.765706	1.765706	0.000000
O	0.000000	1.765706	1.765706
O	1.765706	0.000000	1.765706
Si	1.765706	1.765706	1.765706
V	0.000000	0.000000	0.000000
O	1.765706	1.765706	3.531405
O	0.000000	1.765706	5.297112
O	1.765706	0.000000	5.297112
Si	1.765706	1.765706	5.297112
V	0.000000	0.000000	3.531405
O	1.765706	5.297112	0.000000
O	0.000000	5.297112	1.765706
O	1.765706	3.531405	1.765706
Si	1.765706	5.297112	1.765706
V	0.000000	3.531405	0.000000
O	1.765706	5.297112	3.531405
O	0.000000	5.297112	5.297112
O	1.765706	3.531405	5.297112
Si	1.765706	5.297112	5.297112
V	0.000000	3.531405	3.531405
O	5.297112	1.765706	0.000000
O	3.531405	1.765706	1.765706
O	5.297112	0.000000	1.765706
Si	5.297112	1.765706	1.765706
V	3.531405	0.000000	0.000000
O	5.297112	1.765706	3.531405
O	3.531405	1.765706	5.297112
O	5.297112	0.000000	5.297112
Si	5.297112	1.765706	5.297112
V	3.531405	0.000000	3.531405
O	5.297112	5.297112	0.000000
O	3.531405	5.297112	1.765706
O	5.297112	3.531405	1.765706
Si	5.297112	5.297112	1.765706
V	3.531405	3.531405	0.000000
O	5.297112	5.297112	3.531405
O	3.531405	5.297112	5.297112
O	5.297112	3.531405	5.297112
Si	5.297112	5.297112	5.297112
V	3.531405	3.531405	3.531405
