112

Ga	0.000000	0.000000	0.000000
Ga	2.328932	-2.329621	-2.329621
O	3.575533	-1.082386	-1.082386
O	-1.082332	1.082386	-3.576855
O	1.082332	-1.082386	-3.576855
O	1.246601	1.247234	-1.247234
O	5.740196	1.082386	-1.082386
O	1.246601	3.412007	-3.412007
O	3.411264	3.412007	-1.247234
O	3.411264	1.247234	-3.412007
Tm	-1.164466	-1.164810	-3.494431
Tm	3.493398	1.164810	-1.164810
Tm	5.822330	-1.164810	-1.164810
Tm	1.164466	1.164810	-3.494431
Ga	4.657864	4.659241	0.000000
Ga	6.986797	2.329621	-2.329621
O	8.233397	3.576855	-1.082386
O	3.575533	5.741628	-3.576855
O	5.740196	3.576855	-3.576855
O	5.904465	5.906476	-1.247234
O	10.398060	5.741628	-1.082386
O	5.904465	8.071248	-3.412007
O	8.069128	8.071248	-1.247234
O	8.069128	5.906476	-3.412007
Tm	3.493398	3.494431	-3.494431
Tm	8.151263	5.824052	-1.164810
Tm	10.480195	3.494431	-1.164810
Tm	5.822330	5.824052	-3.494431
Ga	-4.657864	0.000000	-4.659241
Ga	-2.328932	-2.329621	-6.988862
O	-1.082332	-1.082386	-5.741628
O	-5.740196	1.082386	-8.236097
O	-3.575533	-1.082386	-8.236097
O	-3.411264	1.247234	-5.906476
O	1.082332	1.082386	-5.741628
O	-3.411264	3.412007	-8.071248
O	-1.246601	3.412007	-5.906476
O	-1.246601	1.247234	-8.071248
Tm	-5.822330	-1.164810	-8.153673
Tm	-1.164466	1.164810	-5.824052
Tm	1.164466	-1.164810	-5.824052
Tm	-3.493398	1.164810	-8.153673
Ga	0.000000	4.659241	-4.659241
Ga	2.328932	2.329621	-6.988862
O	3.575533	3.576855	-5.741628
O	-1.082332	5.741628	-8.236097
O	1.082332	3.576855	-8.236097
O	1.246601	5.906476	-5.906476
O	5.740196	5.741628	-5.741628
O	1.246601	8.071248	-8.071248
O	3.411264	8.071248	-5.906476
O	3.411264	5.906476	-8.071248
Tm	-1.164466	3.494431	-8.153673
Tm	3.493398	5.824052	-5.824052
Tm	5.822330	3.494431	-5.824052
Tm	1.164466	5.824052	-8.153673
Ga	4.657864	-4.659241	0.000000
Ga	6.986797	-6.988862	-2.329621
O	8.233397	-5.741628	-1.082386
O	3.575533	-3.576855	-3.576855
O	5.740196	-5.741628	-3.576855
O	5.904465	-3.412007	-1.247234
O	10.398060	-3.576855	-1.082386
O	5.904465	-1.247234	-3.412007
O	8.069128	-1.247234	-1.247234
O	8.069128	-3.412007	-3.412007
Tm	3.493398	-5.824052	-3.494431
Tm	8.151263	-3.494431	-1.164810
Tm	10.480195	-5.824052	-1.164810
Tm	5.822330	-3.494431	-3.494431
Ga	9.315729	0.000000	0.000000
Ga	11.644661	-2.329621	-2.329621
O	12.891262	-1.082386	-1.082386
O	8.233397	1.082386	-3.576855
O	10.398060	-1.082386	-3.576855
O	10.562329	1.247234	-1.247234
O	15.055925	1.082386	-1.082386
O	10.562329	3.412007	-3.412007
O	12.726992	3.412007	-1.247234
O	12.726992	1.247234	-3.412007
Tm	8.151263	-1.164810	-3.494431
Tm	12.809127	1.164810	-1.164810
Tm	15.138059	-1.164810	-1.164810
Tm	10.480195	1.164810	-3.494431
Ga	0.000000	-4.659241	-4.659241
Ga	2.328932	-6.988862	-6.988862
O	3.575533	-5.741628	-5.741628
O	-1.082332	-3.576855	-8.236097
O	1.082332	-5.741628	-8.236097
O	1.246601	-3.412007	-5.906476
O	5.740196	-3.576855	-5.741628
O	1.246601	-1.247234	-8.071248
O	3.411264	-1.247234	-5.906476
O	3.411264	-3.412007	-8.071248
Tm	-1.164466	-5.824052	-8.153673
Tm	3.493398	-3.494431	-5.824052
Tm	5.822330	-5.824052	-5.824052
Tm	1.164466	-3.494431	-8.153673
Ga	4.657864	0.000000	-4.659241
Ga	6.986797	-2.329621	-6.988862
O	8.233397	-1.082386	-5.741628
O	3.575533	1.082386	-8.236097
O	5.740196	-1.082386	-8.236097
O	5.904465	1.247234	-5.906476
O	10.398060	1.082386	-5.741628
O	5.904465	3.412007	-8.071248
O	8.069128	3.412007	-5.906476
O	8.069128	1.247234	-8.071248
Tm	3.493398	-1.164810	-8.153673
Tm	8.151263	1.164810	-5.824052
Tm	10.480195	-1.164810	-5.824052
Tm	5.822330	1.164810	-8.153673
