40

Ce	2.242200	2.242200	2.242200
O	2.242200	2.242200	0.000000
O	0.000000	2.242200	2.242200
O	2.242200	0.000000	2.242200
Os	0.000000	0.000000	0.000000
Ce	2.242200	2.242200	6.726591
O	2.242200	2.242200	4.484391
O	0.000000	2.242200	6.726591
O	2.242200	0.000000	6.726591
Os	0.000000	0.000000	4.484391
Ce	2.242200	6.726591	2.242200
O	2.242200	6.726591	0.000000
O	0.000000	6.726591	2.242200
O	2.242200	4.484391	2.242200
Os	0.000000	4.484391	0.000000
Ce	2.242200	6.726591	6.726591
O	2.242200	6.726591	4.484391
O	0.000000	6.726591	6.726591
O	2.242200	4.484391	6.726591
Os	0.000000	4.484391	4.484391
Ce	6.726591	2.242200	2.242200
O	6.726591	2.242200	0.000000
O	4.484391	2.242200	2.242200
O	6.726591	0.000000	2.242200
Os	4.484391	0.000000	0.000000
Ce	6.726591	2.242200	6.726591
O	6.726591	2.242200	4.484391
O	4.484391	2.242200	6.726591
O	6.726591	0.000000	6.726591
Os	4.484391	0.000000	4.484391
Ce	6.726591	6.726591	2.242200
O	6.726591	6.726591	0.000000
O	4.484391	6.726591	2.242200
O	6.726591	4.484391	2.242200
Os	4.484391	4.484391	0.000000
Ce	6.726591	6.726591	6.726591
O	6.726591	6.726591	4.484391
O	4.484391	6.726591	6.726591
O	6.726591	4.484391	6.726591
Os	4.484391	4.484391	4.484391
