40

Ba	0.000000	0.000000	0.000000
O	0.000000	2.063942	2.063942
O	2.063942	0.000000	2.063942
O	2.063942	2.063942	0.000000
Re	2.063942	2.063942	2.063942
Ba	0.000000	0.000000	4.127883
O	0.000000	2.063942	6.191825
O	2.063942	0.000000	6.191825
O	2.063942	2.063942	4.127883
Re	2.063942	2.063942	6.191825
Ba	0.000000	4.127883	0.000000
O	0.000000	6.191825	2.063942
O	2.063942	4.127883	2.063942
O	2.063942	6.191825	0.000000
Re	2.063942	6.191825	2.063942
Ba	0.000000	4.127883	4.127883
O	0.000000	6.191825	6.191825
O	2.063942	4.127883	6.191825
O	2.063942	6.191825	4.127883
Re	2.063942	6.191825	6.191825
Ba	4.127883	0.000000	0.000000
O	4.127883	2.063942	2.063942
O	6.191825	0.000000	2.063942
O	6.191825	2.063942	0.000000
Re	6.191825	2.063942	2.063942
Ba	4.127883	0.000000	4.127883
O	4.127883	2.063942	6.191825
O	6.191825	0.000000	6.191825
O	6.191825	2.063942	4.127883
Re	6.191825	2.063942	6.191825
Ba	4.127883	4.127883	0.000000
O	4.127883	6.191825	2.063942
O	6.191825	4.127883	2.063942
O	6.191825	6.191825	0.000000
Re	6.191825	6.191825	2.063942
Ba	4.127883	4.127883	4.127883
O	4.127883	6.191825	6.191825
O	6.191825	4.127883	6.191825
O	6.191825	6.191825	4.127883
Re	6.191825	6.191825	6.191825
