40

Ni	1.903931	1.903931	1.903931
O	1.903931	1.903931	0.000000
O	1.903931	0.000000	1.903931
O	0.000000	1.903931	1.903931
Pu	0.000000	0.000000	0.000000
Ni	1.903931	1.903931	5.711793
O	1.903931	1.903931	3.807862
O	1.903931	0.000000	5.711793
O	0.000000	1.903931	5.711793
Pu	0.000000	0.000000	3.807862
Ni	1.903931	5.711793	1.903931
O	1.903931	5.711793	0.000000
O	1.903931	3.807862	1.903931
O	0.000000	5.711793	1.903931
Pu	0.000000	3.807862	0.000000
Ni	1.903931	5.711793	5.711793
O	1.903931	5.711793	3.807862
O	1.903931	3.807862	5.711793
O	0.000000	5.711793	5.711793
Pu	0.000000	3.807862	3.807862
Ni	5.711793	1.903931	1.903931
O	5.711793	1.903931	0.000000
O	5.711793	0.000000	1.903931
O	3.807862	1.903931	1.903931
Pu	3.807862	0.000000	0.000000
Ni	5.711793	1.903931	5.711793
O	5.711793	1.903931	3.807862
O	5.711793	0.000000	5.711793
O	3.807862	1.903931	5.711793
Pu	3.807862	0.000000	3.807862
Ni	5.711793	5.711793	1.903931
O	5.711793	5.711793	0.000000
O	5.711793	3.807862	1.903931
O	3.807862	5.711793	1.903931
Pu	3.807862	3.807862	0.000000
Ni	5.711793	5.711793	5.711793
O	5.711793	5.711793	3.807862
O	5.711793	3.807862	5.711793
O	3.807862	5.711793	5.711793
Pu	3.807862	3.807862	3.807862
