40

Dy	2.162301	2.162301	2.162301
O	2.162301	2.162301	0.000000
O	2.162301	0.000000	2.162301
O	0.000000	2.162301	2.162301
Zn	0.000000	0.000000	0.000000
Dy	2.162301	2.162301	6.486904
O	2.162301	2.162301	4.324603
O	2.162301	0.000000	6.486904
O	0.000000	2.162301	6.486904
Zn	0.000000	0.000000	4.324603
Dy	2.162301	6.486904	2.162301
O	2.162301	6.486904	0.000000
O	2.162301	4.324603	2.162301
O	0.000000	6.486904	2.162301
Zn	0.000000	4.324603	0.000000
Dy	2.162301	6.486904	6.486904
O	2.162301	6.486904	4.324603
O	2.162301	4.324603	6.486904
O	0.000000	6.486904	6.486904
Zn	0.000000	4.324603	4.324603
Dy	6.486904	2.162301	2.162301
O	6.486904	2.162301	0.000000
O	6.486904	0.000000	2.162301
O	4.324603	2.162301	2.162301
Zn	4.324603	0.000000	0.000000
Dy	6.486904	2.162301	6.486904
O	6.486904	2.162301	4.324603
O	6.486904	0.000000	6.486904
O	4.324603	2.162301	6.486904
Zn	4.324603	0.000000	4.324603
Dy	6.486904	6.486904	2.162301
O	6.486904	6.486904	0.000000
O	6.486904	4.324603	2.162301
O	4.324603	6.486904	2.162301
Zn	4.324603	4.324603	0.000000
Dy	6.486904	6.486904	6.486904
O	6.486904	6.486904	4.324603
O	6.486904	4.324603	6.486904
O	4.324603	6.486904	6.486904
Zn	4.324603	4.324603	4.324603
