112

O	3.853660	-1.226639	-1.226639
O	-1.226743	1.226639	-3.854857
O	1.226743	-1.226639	-3.854857
O	1.313458	1.314109	-1.314109
O	6.307146	1.226639	-1.226639
O	1.313458	3.767387	-3.767387
O	3.766945	3.767387	-1.314109
O	3.766945	1.314109	-3.767387
Pr	0.000000	0.000000	0.000000
Pr	2.540202	-2.540748	-2.540748
Th	-1.270101	-1.270374	-3.811122
Th	3.810302	1.270374	-1.270374
Th	6.350504	-1.270374	-1.270374
Th	1.270101	1.270374	-3.811122
O	8.934063	3.854857	-1.226639
O	3.853660	6.308136	-3.854857
O	6.307146	3.854857	-3.854857
O	6.393862	6.395605	-1.314109
O	11.387550	6.308136	-1.226639
O	6.393862	8.848884	-3.767387
O	8.847348	8.848884	-1.314109
O	8.847348	6.395605	-3.767387
Pr	5.080403	5.081496	0.000000
Pr	7.620605	2.540748	-2.540748
Th	3.810302	3.811122	-3.811122
Th	8.890706	6.351870	-1.270374
Th	11.430907	3.811122	-1.270374
Th	6.350504	6.351870	-3.811122
O	-1.226743	-1.226639	-6.308136
O	-6.307146	1.226639	-8.936353
O	-3.853660	-1.226639	-8.936353
O	-3.766945	1.314109	-6.395605
O	1.226743	1.226639	-6.308136
O	-3.766945	3.767387	-8.848884
O	-1.313458	3.767387	-6.395605
O	-1.313458	1.314109	-8.848884
Pr	-5.080403	0.000000	-5.081496
Pr	-2.540202	-2.540748	-7.622244
Th	-6.350504	-1.270374	-8.892619
Th	-1.270101	1.270374	-6.351870
Th	1.270101	-1.270374	-6.351870
Th	-3.810302	1.270374	-8.892619
O	3.853660	3.854857	-6.308136
O	-1.226743	6.308136	-8.936353
O	1.226743	3.854857	-8.936353
O	1.313458	6.395605	-6.395605
O	6.307146	6.308136	-6.308136
O	1.313458	8.848884	-8.848884
O	3.766945	8.848884	-6.395605
O	3.766945	6.395605	-8.848884
Pr	0.000000	5.081496	-5.081496
Pr	2.540202	2.540748	-7.622244
Th	-1.270101	3.811122	-8.892619
Th	3.810302	6.351870	-6.351870
Th	6.350504	3.811122	-6.351870
Th	1.270101	6.351870	-8.892619
O	8.934063	-6.308136	-1.226639
O	3.853660	-3.854857	-3.854857
O	6.307146	-6.308136	-3.854857
O	6.393862	-3.767387	-1.314109
O	11.387550	-3.854857	-1.226639
O	6.393862	-1.314109	-3.767387
O	8.847348	-1.314109	-1.314109
O	8.847348	-3.767387	-3.767387
Pr	5.080403	-5.081496	0.000000
Pr	7.620605	-7.622244	-2.540748
Th	3.810302	-6.351870	-3.811122
Th	8.890706	-3.811122	-1.270374
Th	11.430907	-6.351870	-1.270374
Th	6.350504	-3.811122	-3.811122
O	14.014466	-1.226639	-1.226639
O	8.934063	1.226639	-3.854857
O	11.387550	-1.226639	-3.854857
O	11.474265	1.314109	-1.314109
O	16.467953	1.226639	-1.226639
O	11.474265	3.767387	-3.767387
O	13.927751	3.767387	-1.314109
O	13.927751	1.314109	-3.767387
Pr	10.160806	0.000000	0.000000
Pr	12.701008	-2.540748	-2.540748
Th	8.890706	-1.270374	-3.811122
Th	13.971109	1.270374	-1.270374
Th	16.511310	-1.270374	-1.270374
Th	11.430907	1.270374	-3.811122
O	3.853660	-6.308136	-6.308136
O	-1.226743	-3.854857	-8.936353
O	1.226743	-6.308136	-8.936353
O	1.313458	-3.767387	-6.395605
O	6.307146	-3.854857	-6.308136
O	1.313458	-1.314109	-8.848884
O	3.766945	-1.314109	-6.395605
O	3.766945	-3.767387	-8.848884
Pr	0.000000	-5.081496	-5.081496
Pr	2.540202	-7.622244	-7.622244
Th	-1.270101	-6.351870	-8.892619
Th	3.810302	-3.811122	-6.351870
Th	6.350504	-6.351870	-6.351870
Th	1.270101	-3.811122	-8.892619
O	8.934063	-1.226639	-6.308136
O	3.853660	1.226639	-8.936353
O	6.307146	-1.226639	-8.936353
O	6.393862	1.314109	-6.395605
O	11.387550	1.226639	-6.308136
O	6.393862	3.767387	-8.848884
O	8.847348	3.767387	-6.395605
O	8.847348	1.314109	-8.848884
Pr	5.080403	0.000000	-5.081496
Pr	7.620605	-2.540748	-7.622244
Th	3.810302	-1.270374	-8.892619
Th	8.890706	1.270374	-6.351870
Th	11.430907	-1.270374	-6.351870
Th	6.350504	1.270374	-8.892619
