112

Ce	0.000000	0.000000	0.000000
Ce	2.302232	-2.302949	-2.302949
Ir	-1.151116	-1.151475	-3.454424
Ir	3.453348	1.151475	-1.151475
Ir	5.755580	-1.151475	-1.151475
Ir	1.151116	1.151475	-3.454424
O	3.665693	-0.938401	-0.938401
O	-0.938772	0.938401	-3.667498
O	0.938772	-0.938401	-3.667498
O	1.363460	1.364549	-1.364549
O	5.543236	0.938401	-0.938401
O	1.363460	3.241350	-3.241350
O	3.241004	3.241350	-1.364549
O	3.241004	1.364549	-3.241350
Ce	4.604464	4.605898	0.000000
Ce	6.906697	2.302949	-2.302949
Ir	3.453348	3.454424	-3.454424
Ir	8.057813	5.757373	-1.151475
Ir	10.360045	3.454424	-1.151475
Ir	5.755580	5.757373	-3.454424
O	8.270157	3.667498	-0.938401
O	3.665693	5.544299	-3.667498
O	5.543236	3.667498	-3.667498
O	5.967925	5.970447	-1.364549
O	10.147701	5.544299	-0.938401
O	5.967925	7.847248	-3.241350
O	7.845468	7.847248	-1.364549
O	7.845468	5.970447	-3.241350
Ce	-4.604464	0.000000	-4.605898
Ce	-2.302232	-2.302949	-6.908847
Ir	-5.755580	-1.151475	-8.060322
Ir	-1.151116	1.151475	-5.757373
Ir	1.151116	-1.151475	-5.757373
Ir	-3.453348	1.151475	-8.060322
O	-0.938772	-0.938401	-5.544299
O	-5.543236	0.938401	-8.273396
O	-3.665693	-0.938401	-8.273396
O	-3.241004	1.364549	-5.970447
O	0.938772	0.938401	-5.544299
O	-3.241004	3.241350	-7.847248
O	-1.363460	3.241350	-5.970447
O	-1.363460	1.364549	-7.847248
Ce	0.000000	4.605898	-4.605898
Ce	2.302232	2.302949	-6.908847
Ir	-1.151116	3.454424	-8.060322
Ir	3.453348	5.757373	-5.757373
Ir	5.755580	3.454424	-5.757373
Ir	1.151116	5.757373	-8.060322
O	3.665693	3.667498	-5.544299
O	-0.938772	5.544299	-8.273396
O	0.938772	3.667498	-8.273396
O	1.363460	5.970447	-5.970447
O	5.543236	5.544299	-5.544299
O	1.363460	7.847248	-7.847248
O	3.241004	7.847248	-5.970447
O	3.241004	5.970447	-7.847248
Ce	4.604464	-4.605898	0.000000
Ce	6.906697	-6.908847	-2.302949
Ir	3.453348	-5.757373	-3.454424
Ir	8.057813	-3.454424	-1.151475
Ir	10.360045	-5.757373	-1.151475
Ir	5.755580	-3.454424	-3.454424
O	8.270157	-5.544299	-0.938401
O	3.665693	-3.667498	-3.667498
O	5.543236	-5.544299	-3.667498
O	5.967925	-3.241350	-1.364549
O	10.147701	-3.667498	-0.938401
O	5.967925	-1.364549	-3.241350
O	7.845468	-1.364549	-1.364549
O	7.845468	-3.241350	-3.241350
Ce	9.208929	0.000000	0.000000
Ce	11.511161	-2.302949	-2.302949
Ir	8.057813	-1.151475	-3.454424
Ir	12.662277	1.151475	-1.151475
Ir	14.964509	-1.151475	-1.151475
Ir	10.360045	1.151475	-3.454424
O	12.874621	-0.938401	-0.938401
O	8.270157	0.938401	-3.667498
O	10.147701	-0.938401	-3.667498
O	10.572389	1.364549	-1.364549
O	14.752165	0.938401	-0.938401
O	10.572389	3.241350	-3.241350
O	12.449933	3.241350	-1.364549
O	12.449933	1.364549	-3.241350
Ce	0.000000	-4.605898	-4.605898
Ce	2.302232	-6.908847	-6.908847
Ir	-1.151116	-5.757373	-8.060322
Ir	3.453348	-3.454424	-5.757373
Ir	5.755580	-5.757373	-5.757373
Ir	1.151116	-3.454424	-8.060322
O	3.665693	-5.544299	-5.544299
O	-0.938772	-3.667498	-8.273396
O	0.938772	-5.544299	-8.273396
O	1.363460	-3.241350	-5.970447
O	5.543236	-3.667498	-5.544299
O	1.363460	-1.364549	-7.847248
O	3.241004	-1.364549	-5.970447
O	3.241004	-3.241350	-7.847248
Ce	4.604464	0.000000	-4.605898
Ce	6.906697	-2.302949	-6.908847
Ir	3.453348	-1.151475	-8.060322
Ir	8.057813	1.151475	-5.757373
Ir	10.360045	-1.151475	-5.757373
Ir	5.755580	1.151475	-8.060322
O	8.270157	-0.938401	-5.544299
O	3.665693	0.938401	-8.273396
O	5.543236	-0.938401	-8.273396
O	5.967925	1.364549	-5.970447
O	10.147701	0.938401	-5.544299
O	5.967925	3.241350	-7.847248
O	7.845468	3.241350	-5.970447
O	7.845468	1.364549	-7.847248
