40

As	0.000000	0.000000	0.000000
O	0.000000	2.122832	2.122832
O	2.122832	0.000000	2.122832
O	2.122832	2.122832	0.000000
Pb	2.122832	2.122832	2.122832
As	0.000000	0.000000	4.245663
O	0.000000	2.122832	6.368495
O	2.122832	0.000000	6.368495
O	2.122832	2.122832	4.245663
Pb	2.122832	2.122832	6.368495
As	0.000000	4.245663	0.000000
O	0.000000	6.368495	2.122832
O	2.122832	4.245663	2.122832
O	2.122832	6.368495	0.000000
Pb	2.122832	6.368495	2.122832
As	0.000000	4.245663	4.245663
O	0.000000	6.368495	6.368495
O	2.122832	4.245663	6.368495
O	2.122832	6.368495	4.245663
Pb	2.122832	6.368495	6.368495
As	4.245663	0.000000	0.000000
O	4.245663	2.122832	2.122832
O	6.368495	0.000000	2.122832
O	6.368495	2.122832	0.000000
Pb	6.368495	2.122832	2.122832
As	4.245663	0.000000	4.245663
O	4.245663	2.122832	6.368495
O	6.368495	0.000000	6.368495
O	6.368495	2.122832	4.245663
Pb	6.368495	2.122832	6.368495
As	4.245663	4.245663	0.000000
O	4.245663	6.368495	2.122832
O	6.368495	4.245663	2.122832
O	6.368495	6.368495	0.000000
Pb	6.368495	6.368495	2.122832
As	4.245663	4.245663	4.245663
O	4.245663	6.368495	6.368495
O	6.368495	4.245663	6.368495
O	6.368495	6.368495	4.245663
Pb	6.368495	6.368495	6.368495
