112

Np	0.000000	0.000000	0.000000
Np	2.505906	-2.506343	-2.506343
O	1.245368	1.246125	-1.246125
O	-1.260538	1.260227	-3.752468
O	3.751284	-1.260227	-1.260227
O	1.260538	-1.260227	-3.752468
O	1.245368	3.766570	-3.766570
O	3.766443	3.766570	-1.246125
O	3.766443	1.246125	-3.766570
O	6.272359	1.260227	-1.260227
Sr	-1.252958	-1.253176	-3.759519
Sr	6.264769	-1.253176	-1.253176
Sr	1.252958	1.253176	-3.759519
Sr	3.758864	1.253176	-1.253176
Np	5.011818	5.012694	0.000000
Np	7.517724	2.506351	-2.506343
O	6.257186	6.258819	-1.246125
O	3.751281	6.272921	-3.752468
O	8.763102	3.752466	-1.260227
O	6.272356	3.752466	-3.752468
O	6.257186	8.779264	-3.766570
O	8.778262	8.779264	-1.246125
O	8.778262	6.258819	-3.766570
O	11.284177	6.272921	-1.260227
Sr	3.758860	3.759517	-3.759519
Sr	11.276588	3.759517	-1.253176
Sr	6.264776	6.265870	-3.759519
Sr	8.770682	6.265870	-1.253176
Np	-5.011818	0.000000	-5.012694
Np	-2.505912	-2.506343	-7.519037
O	-3.766450	1.246125	-6.258819
O	-6.272356	1.260227	-8.765162
O	-1.260534	-1.260227	-6.272921
O	-3.751281	-1.260227	-8.765162
O	-3.766450	3.766570	-8.779264
O	-1.245375	3.766570	-6.258819
O	-1.245375	1.246125	-8.779264
O	1.260541	1.260227	-6.272921
Sr	-6.264776	-1.253176	-8.772213
Sr	1.252951	-1.253176	-6.265870
Sr	-3.758860	1.253176	-8.772213
Sr	-1.252955	1.253176	-6.265870
Np	0.000000	5.012694	-5.012694
Np	2.505906	2.506351	-7.519037
O	1.245368	6.258819	-6.258819
O	-1.260538	6.272921	-8.765162
O	3.751284	3.752466	-6.272921
O	1.260538	3.752466	-8.765162
O	1.245368	8.779264	-8.779264
O	3.766443	8.779264	-6.258819
O	3.766443	6.258819	-8.779264
O	6.272359	6.272921	-6.272921
Sr	-1.252958	3.759517	-8.772213
Sr	6.264769	3.759517	-6.265870
Sr	1.252958	6.265870	-8.772213
Sr	3.758864	6.265870	-6.265870
Np	5.011818	-5.012694	0.000000
Np	7.517724	-7.519037	-2.506343
O	6.257186	-3.766568	-1.246125
O	3.751281	-3.752466	-3.752468
O	8.763102	-6.272921	-1.260227
O	6.272356	-6.272921	-3.752468
O	6.257186	-1.246123	-3.766570
O	8.778262	-1.246123	-1.246125
O	8.778262	-3.766568	-3.766570
O	11.284177	-3.752466	-1.260227
Sr	3.758860	-6.265870	-3.759519
Sr	11.276588	-6.265870	-1.253176
Sr	6.264776	-3.759517	-3.759519
Sr	8.770682	-3.759517	-1.253176
Np	10.023636	0.000000	0.000000
Np	12.529542	-2.506343	-2.506343
O	11.269005	1.246125	-1.246125
O	8.763099	1.260227	-3.752468
O	13.774920	-1.260227	-1.260227
O	11.284174	-1.260227	-3.752468
O	11.269005	3.766570	-3.766570
O	13.790080	3.766570	-1.246125
O	13.790080	1.246125	-3.766570
O	16.295996	1.260227	-1.260227
Sr	8.770679	-1.253176	-3.759519
Sr	16.288406	-1.253176	-1.253176
Sr	11.276594	1.253176	-3.759519
Sr	13.782500	1.253176	-1.253176
Np	0.000000	-5.012694	-5.012694
Np	2.505906	-7.519037	-7.519037
O	1.245368	-3.766568	-6.258819
O	-1.260538	-3.752466	-8.765162
O	3.751284	-6.272921	-6.272921
O	1.260538	-6.272921	-8.765162
O	1.245368	-1.246123	-8.779264
O	3.766443	-1.246123	-6.258819
O	3.766443	-3.766568	-8.779264
O	6.272359	-3.752466	-6.272921
Sr	-1.252958	-6.265870	-8.772213
Sr	6.264769	-6.265870	-6.265870
Sr	1.252958	-3.759517	-8.772213
Sr	3.758864	-3.759517	-6.265870
Np	5.011818	0.000000	-5.012694
Np	7.517724	-2.506343	-7.519037
O	6.257186	1.246125	-6.258819
O	3.751281	1.260227	-8.765162
O	8.763102	-1.260227	-6.272921
O	6.272356	-1.260227	-8.765162
O	6.257186	3.766570	-8.779264
O	8.778262	3.766570	-6.258819
O	8.778262	1.246125	-8.779264
O	11.284177	1.260227	-6.272921
Sr	3.758860	-1.253176	-8.772213
Sr	11.276588	-1.253176	-6.265870
Sr	6.264776	1.253176	-8.772213
Sr	8.770682	1.253176	-6.265870
