40

Co	1.830240	1.830240	1.830240
Cr	0.000000	0.000000	0.000000
O	1.830240	0.000000	1.830240
O	0.000000	1.830240	1.830240
O	1.830240	1.830240	0.000000
Co	1.830240	1.830240	5.490731
Cr	0.000000	0.000000	3.660491
O	1.830240	0.000000	5.490731
O	0.000000	1.830240	5.490731
O	1.830240	1.830240	3.660491
Co	1.830240	5.490731	1.830240
Cr	0.000000	3.660491	0.000000
O	1.830240	3.660491	1.830240
O	0.000000	5.490731	1.830240
O	1.830240	5.490731	0.000000
Co	1.830240	5.490731	5.490731
Cr	0.000000	3.660491	3.660491
O	1.830240	3.660491	5.490731
O	0.000000	5.490731	5.490731
O	1.830240	5.490731	3.660491
Co	5.490731	1.830240	1.830240
Cr	3.660491	0.000000	0.000000
O	5.490731	0.000000	1.830240
O	3.660491	1.830240	1.830240
O	5.490731	1.830240	0.000000
Co	5.490731	1.830240	5.490731
Cr	3.660491	0.000000	3.660491
O	5.490731	0.000000	5.490731
O	3.660491	1.830240	5.490731
O	5.490731	1.830240	3.660491
Co	5.490731	5.490731	1.830240
Cr	3.660491	3.660491	0.000000
O	5.490731	3.660491	1.830240
O	3.660491	5.490731	1.830240
O	5.490731	5.490731	0.000000
Co	5.490731	5.490731	5.490731
Cr	3.660491	3.660491	3.660491
O	5.490731	3.660491	5.490731
O	3.660491	5.490731	5.490731
O	5.490731	5.490731	3.660491
