40

La	0.000000	0.000000	0.000000
O	2.022250	2.022250	0.000000
O	0.000000	2.022250	2.022250
O	2.022250	0.000000	2.022250
Ta_pv	2.022250	2.022250	2.022250
La	0.000000	0.000000	4.044492
O	2.022250	2.022250	4.044492
O	0.000000	2.022250	6.066742
O	2.022250	0.000000	6.066742
Ta_pv	2.022250	2.022250	6.066742
La	0.000000	4.044492	0.000000
O	2.022250	6.066742	0.000000
O	0.000000	6.066742	2.022250
O	2.022250	4.044492	2.022250
Ta_pv	2.022250	6.066742	2.022250
La	0.000000	4.044492	4.044492
O	2.022250	6.066742	4.044492
O	0.000000	6.066742	6.066742
O	2.022250	4.044492	6.066742
Ta_pv	2.022250	6.066742	6.066742
La	4.044492	0.000000	0.000000
O	6.066742	2.022250	0.000000
O	4.044492	2.022250	2.022250
O	6.066742	0.000000	2.022250
Ta_pv	6.066742	2.022250	2.022250
La	4.044492	0.000000	4.044492
O	6.066742	2.022250	4.044492
O	4.044492	2.022250	6.066742
O	6.066742	0.000000	6.066742
Ta_pv	6.066742	2.022250	6.066742
La	4.044492	4.044492	0.000000
O	6.066742	6.066742	0.000000
O	4.044492	6.066742	2.022250
O	6.066742	4.044492	2.022250
Ta_pv	6.066742	6.066742	2.022250
La	4.044492	4.044492	4.044492
O	6.066742	6.066742	4.044492
O	4.044492	6.066742	6.066742
O	6.066742	4.044492	6.066742
Ta_pv	6.066742	6.066742	6.066742
