40

In	0.000000	0.000000	0.000000
O	1.907861	1.907861	0.000000
O	1.907861	0.000000	1.907861
O	0.000000	1.907861	1.907861
Zn	1.907861	1.907861	1.907861
In	0.000000	0.000000	3.815729
O	1.907861	1.907861	3.815729
O	1.907861	0.000000	5.723590
O	0.000000	1.907861	5.723590
Zn	1.907861	1.907861	5.723590
In	0.000000	3.815729	0.000000
O	1.907861	5.723590	0.000000
O	1.907861	3.815729	1.907861
O	0.000000	5.723590	1.907861
Zn	1.907861	5.723590	1.907861
In	0.000000	3.815729	3.815729
O	1.907861	5.723590	3.815729
O	1.907861	3.815729	5.723590
O	0.000000	5.723590	5.723590
Zn	1.907861	5.723590	5.723590
In	3.815729	0.000000	0.000000
O	5.723590	1.907861	0.000000
O	5.723590	0.000000	1.907861
O	3.815729	1.907861	1.907861
Zn	5.723590	1.907861	1.907861
In	3.815729	0.000000	3.815729
O	5.723590	1.907861	3.815729
O	5.723590	0.000000	5.723590
O	3.815729	1.907861	5.723590
Zn	5.723590	1.907861	5.723590
In	3.815729	3.815729	0.000000
O	5.723590	5.723590	0.000000
O	5.723590	3.815729	1.907861
O	3.815729	5.723590	1.907861
Zn	5.723590	5.723590	1.907861
In	3.815729	3.815729	3.815729
O	5.723590	5.723590	3.815729
O	5.723590	3.815729	5.723590
O	3.815729	5.723590	5.723590
Zn	5.723590	5.723590	5.723590
