40

O	2.094660	2.094660	0.000000
O	0.000000	2.094660	2.094660
O	2.094660	0.000000	2.094660
Pb	2.094660	2.094660	2.094660
Pd	0.000000	0.000000	0.000000
O	2.094660	2.094660	4.189328
O	0.000000	2.094660	6.283987
O	2.094660	0.000000	6.283987
Pb	2.094660	2.094660	6.283987
Pd	0.000000	0.000000	4.189328
O	2.094660	6.283987	0.000000
O	0.000000	6.283987	2.094660
O	2.094660	4.189328	2.094660
Pb	2.094660	6.283987	2.094660
Pd	0.000000	4.189328	0.000000
O	2.094660	6.283987	4.189328
O	0.000000	6.283987	6.283987
O	2.094660	4.189328	6.283987
Pb	2.094660	6.283987	6.283987
Pd	0.000000	4.189328	4.189328
O	6.283987	2.094660	0.000000
O	4.189328	2.094660	2.094660
O	6.283987	0.000000	2.094660
Pb	6.283987	2.094660	2.094660
Pd	4.189328	0.000000	0.000000
O	6.283987	2.094660	4.189328
O	4.189328	2.094660	6.283987
O	6.283987	0.000000	6.283987
Pb	6.283987	2.094660	6.283987
Pd	4.189328	0.000000	4.189328
O	6.283987	6.283987	0.000000
O	4.189328	6.283987	2.094660
O	6.283987	4.189328	2.094660
Pb	6.283987	6.283987	2.094660
Pd	4.189328	4.189328	0.000000
O	6.283987	6.283987	4.189328
O	4.189328	6.283987	6.283987
O	6.283987	4.189328	6.283987
Pb	6.283987	6.283987	6.283987
Pd	4.189328	4.189328	4.189328
