40

O	0.000000	1.957778	1.957778
O	1.957778	0.000000	1.957778
O	1.957778	1.957778	0.000000
Ru	1.957778	1.957778	1.957778
Se	0.000000	0.000000	0.000000
O	0.000000	1.957778	5.873335
O	1.957778	0.000000	5.873335
O	1.957778	1.957778	3.915557
Ru	1.957778	1.957778	5.873335
Se	0.000000	0.000000	3.915557
O	0.000000	5.873335	1.957778
O	1.957778	3.915557	1.957778
O	1.957778	5.873335	0.000000
Ru	1.957778	5.873335	1.957778
Se	0.000000	3.915557	0.000000
O	0.000000	5.873335	5.873335
O	1.957778	3.915557	5.873335
O	1.957778	5.873335	3.915557
Ru	1.957778	5.873335	5.873335
Se	0.000000	3.915557	3.915557
O	3.915557	1.957778	1.957778
O	5.873335	0.000000	1.957778
O	5.873335	1.957778	0.000000
Ru	5.873335	1.957778	1.957778
Se	3.915557	0.000000	0.000000
O	3.915557	1.957778	5.873335
O	5.873335	0.000000	5.873335
O	5.873335	1.957778	3.915557
Ru	5.873335	1.957778	5.873335
Se	3.915557	0.000000	3.915557
O	3.915557	5.873335	1.957778
O	5.873335	3.915557	1.957778
O	5.873335	5.873335	0.000000
Ru	5.873335	5.873335	1.957778
Se	3.915557	3.915557	0.000000
O	3.915557	5.873335	5.873335
O	5.873335	3.915557	5.873335
O	5.873335	5.873335	3.915557
Ru	5.873335	5.873335	5.873335
Se	3.915557	3.915557	3.915557
