112

Ho	0.000000	0.000000	0.000000
Ho	2.239424	-2.239923	-2.239923
O	3.487885	-0.990501	-0.990501
O	-0.990962	0.990501	-3.489344
O	0.990963	-0.990501	-3.489344
O	1.248461	1.249422	-1.249422
O	5.469810	0.990501	-0.990501
O	1.248461	3.230424	-3.230424
O	3.230386	3.230424	-1.249422
O	3.230386	1.249422	-3.230424
Rh	-1.119712	-1.119961	-3.359884
Rh	3.359135	1.119961	-1.119961
Rh	5.598559	-1.119961	-1.119961
Rh	1.119712	1.119961	-3.359884
Ho	4.478847	4.479845	0.000000
Ho	6.718271	2.239923	-2.239923
O	7.966732	3.489344	-0.990501
O	3.487885	5.470346	-3.489344
O	5.469810	3.489344	-3.489344
O	5.727308	5.729267	-1.249422
O	9.948657	5.470346	-0.990501
O	5.727308	7.710269	-3.230424
O	7.709233	7.710269	-1.249422
O	7.709233	5.729267	-3.230424
Rh	3.359135	3.359884	-3.359884
Rh	7.837982	5.599807	-1.119961
Rh	10.077406	3.359884	-1.119961
Rh	5.598559	5.599807	-3.359884
Ho	-4.478847	0.000000	-4.479845
Ho	-2.239424	-2.239923	-6.719768
O	-0.990963	-0.990501	-5.470346
O	-5.469810	0.990501	-7.969190
O	-3.487885	-0.990501	-7.969190
O	-3.230386	1.249422	-5.729267
O	0.990962	0.990501	-5.470346
O	-3.230386	3.230424	-7.710269
O	-1.248461	3.230424	-5.729267
O	-1.248461	1.249422	-7.710269
Rh	-5.598559	-1.119961	-7.839729
Rh	-1.119712	1.119961	-5.599807
Rh	1.119712	-1.119961	-5.599807
Rh	-3.359135	1.119961	-7.839729
Ho	0.000000	4.479845	-4.479845
Ho	2.239424	2.239923	-6.719768
O	3.487885	3.489344	-5.470346
O	-0.990962	5.470346	-7.969190
O	0.990963	3.489344	-7.969190
O	1.248461	5.729267	-5.729267
O	5.469810	5.470346	-5.470346
O	1.248461	7.710269	-7.710269
O	3.230386	7.710269	-5.729267
O	3.230386	5.729267	-7.710269
Rh	-1.119712	3.359884	-7.839729
Rh	3.359135	5.599807	-5.599807
Rh	5.598559	3.359884	-5.599807
Rh	1.119712	5.599807	-7.839729
Ho	4.478847	-4.479845	0.000000
Ho	6.718271	-6.719768	-2.239923
O	7.966732	-5.470346	-0.990501
O	3.487885	-3.489344	-3.489344
O	5.469810	-5.470346	-3.489344
O	5.727308	-3.230424	-1.249422
O	9.948657	-3.489344	-0.990501
O	5.727308	-1.249422	-3.230424
O	7.709233	-1.249422	-1.249422
O	7.709233	-3.230424	-3.230424
Rh	3.359135	-5.599807	-3.359884
Rh	7.837982	-3.359884	-1.119961
Rh	10.077406	-5.599807	-1.119961
Rh	5.598559	-3.359884	-3.359884
Ho	8.957694	0.000000	0.000000
Ho	11.197118	-2.239923	-2.239923
O	12.445579	-0.990501	-0.990501
O	7.966732	0.990501	-3.489344
O	9.948657	-0.990501	-3.489344
O	10.206155	1.249422	-1.249422
O	14.427504	0.990501	-0.990501
O	10.206155	3.230424	-3.230424
O	12.188080	3.230424	-1.249422
O	12.188080	1.249422	-3.230424
Rh	7.837982	-1.119961	-3.359884
Rh	12.316830	1.119961	-1.119961
Rh	14.556253	-1.119961	-1.119961
Rh	10.077406	1.119961	-3.359884
Ho	0.000000	-4.479845	-4.479845
Ho	2.239424	-6.719768	-6.719768
O	3.487885	-5.470346	-5.470346
O	-0.990962	-3.489344	-7.969190
O	0.990963	-5.470346	-7.969190
O	1.248461	-3.230424	-5.729267
O	5.469810	-3.489344	-5.470346
O	1.248461	-1.249422	-7.710269
O	3.230386	-1.249422	-5.729267
O	3.230386	-3.230424	-7.710269
Rh	-1.119712	-5.599807	-7.839729
Rh	3.359135	-3.359884	-5.599807
Rh	5.598559	-5.599807	-5.599807
Rh	1.119712	-3.359884	-7.839729
Ho	4.478847	0.000000	-4.479845
Ho	6.718271	-2.239923	-6.719768
O	7.966732	-0.990501	-5.470346
O	3.487885	0.990501	-7.969190
O	5.469810	-0.990501	-7.969190
O	5.727308	1.249422	-5.729267
O	9.948657	0.990501	-5.470346
O	5.727308	3.230424	-7.710269
O	7.709233	3.230424	-5.729267
O	7.709233	1.249422	-7.710269
Rh	3.359135	-1.119961	-7.839729
Rh	7.837982	1.119961	-5.599807
Rh	10.077406	-1.119961	-5.599807
Rh	5.598559	1.119961	-7.839729
