40

Hg	2.086833	2.086833	2.086833
O	0.000000	2.086833	2.086833
O	2.086833	0.000000	2.086833
O	2.086833	2.086833	0.000000
S	0.000000	0.000000	0.000000
Hg	2.086833	2.086833	6.260500
O	0.000000	2.086833	6.260500
O	2.086833	0.000000	6.260500
O	2.086833	2.086833	4.173667
S	0.000000	0.000000	4.173667
Hg	2.086833	6.260500	2.086833
O	0.000000	6.260500	2.086833
O	2.086833	4.173667	2.086833
O	2.086833	6.260500	0.000000
S	0.000000	4.173667	0.000000
Hg	2.086833	6.260500	6.260500
O	0.000000	6.260500	6.260500
O	2.086833	4.173667	6.260500
O	2.086833	6.260500	4.173667
S	0.000000	4.173667	4.173667
Hg	6.260500	2.086833	2.086833
O	4.173667	2.086833	2.086833
O	6.260500	0.000000	2.086833
O	6.260500	2.086833	0.000000
S	4.173667	0.000000	0.000000
Hg	6.260500	2.086833	6.260500
O	4.173667	2.086833	6.260500
O	6.260500	0.000000	6.260500
O	6.260500	2.086833	4.173667
S	4.173667	0.000000	4.173667
Hg	6.260500	6.260500	2.086833
O	4.173667	6.260500	2.086833
O	6.260500	4.173667	2.086833
O	6.260500	6.260500	0.000000
S	4.173667	4.173667	0.000000
Hg	6.260500	6.260500	6.260500
O	4.173667	6.260500	6.260500
O	6.260500	4.173667	6.260500
O	6.260500	6.260500	4.173667
S	4.173667	4.173667	4.173667
