40

Ag	2.026140	2.026140	2.026140
Cd	0.000000	0.000000	0.000000
O	2.026140	2.026140	0.000000
O	2.026140	0.000000	2.026140
O	0.000000	2.026140	2.026140
Ag	2.026140	2.026140	6.078420
Cd	0.000000	0.000000	4.052280
O	2.026140	2.026140	4.052280
O	2.026140	0.000000	6.078420
O	0.000000	2.026140	6.078420
Ag	2.026140	6.078420	2.026140
Cd	0.000000	4.052280	0.000000
O	2.026140	6.078420	0.000000
O	2.026140	4.052280	2.026140
O	0.000000	6.078420	2.026140
Ag	2.026140	6.078420	6.078420
Cd	0.000000	4.052280	4.052280
O	2.026140	6.078420	4.052280
O	2.026140	4.052280	6.078420
O	0.000000	6.078420	6.078420
Ag	6.078420	2.026140	2.026140
Cd	4.052280	0.000000	0.000000
O	6.078420	2.026140	0.000000
O	6.078420	0.000000	2.026140
O	4.052280	2.026140	2.026140
Ag	6.078420	2.026140	6.078420
Cd	4.052280	0.000000	4.052280
O	6.078420	2.026140	4.052280
O	6.078420	0.000000	6.078420
O	4.052280	2.026140	6.078420
Ag	6.078420	6.078420	2.026140
Cd	4.052280	4.052280	0.000000
O	6.078420	6.078420	0.000000
O	6.078420	4.052280	2.026140
O	4.052280	6.078420	2.026140
Ag	6.078420	6.078420	6.078420
Cd	4.052280	4.052280	4.052280
O	6.078420	6.078420	4.052280
O	6.078420	4.052280	6.078420
O	4.052280	6.078420	6.078420
