40

Bi	2.116520	2.116520	2.116520
Mg	0.000000	0.000000	0.000000
O	2.116520	2.116520	0.000000
O	0.000000	2.116520	2.116520
O	2.116520	0.000000	2.116520
Bi	2.116520	2.116520	6.349560
Mg	0.000000	0.000000	4.233040
O	2.116520	2.116520	4.233040
O	0.000000	2.116520	6.349560
O	2.116520	0.000000	6.349560
Bi	2.116520	6.349560	2.116520
Mg	0.000000	4.233040	0.000000
O	2.116520	6.349560	0.000000
O	0.000000	6.349560	2.116520
O	2.116520	4.233040	2.116520
Bi	2.116520	6.349560	6.349560
Mg	0.000000	4.233040	4.233040
O	2.116520	6.349560	4.233040
O	0.000000	6.349560	6.349560
O	2.116520	4.233040	6.349560
Bi	6.349560	2.116520	2.116520
Mg	4.233040	0.000000	0.000000
O	6.349560	2.116520	0.000000
O	4.233040	2.116520	2.116520
O	6.349560	0.000000	2.116520
Bi	6.349560	2.116520	6.349560
Mg	4.233040	0.000000	4.233040
O	6.349560	2.116520	4.233040
O	4.233040	2.116520	6.349560
O	6.349560	0.000000	6.349560
Bi	6.349560	6.349560	2.116520
Mg	4.233040	4.233040	0.000000
O	6.349560	6.349560	0.000000
O	4.233040	6.349560	2.116520
O	6.349560	4.233040	2.116520
Bi	6.349560	6.349560	6.349560
Mg	4.233040	4.233040	4.233040
O	6.349560	6.349560	4.233040
O	4.233040	6.349560	6.349560
O	6.349560	4.233040	6.349560
