40

Mo	0.000000	0.000000	0.000000
O	2.198901	2.198901	0.000000
O	2.198901	0.000000	2.198901
O	0.000000	2.198901	2.198901
Sr	2.198901	2.198901	2.198901
Mo	0.000000	0.000000	4.397802
O	2.198901	2.198901	4.397802
O	2.198901	0.000000	6.596703
O	0.000000	2.198901	6.596703
Sr	2.198901	2.198901	6.596703
Mo	0.000000	4.397802	0.000000
O	2.198901	6.596703	0.000000
O	2.198901	4.397802	2.198901
O	0.000000	6.596703	2.198901
Sr	2.198901	6.596703	2.198901
Mo	0.000000	4.397802	4.397802
O	2.198901	6.596703	4.397802
O	2.198901	4.397802	6.596703
O	0.000000	6.596703	6.596703
Sr	2.198901	6.596703	6.596703
Mo	4.397802	0.000000	0.000000
O	6.596703	2.198901	0.000000
O	6.596703	0.000000	2.198901
O	4.397802	2.198901	2.198901
Sr	6.596703	2.198901	2.198901
Mo	4.397802	0.000000	4.397802
O	6.596703	2.198901	4.397802
O	6.596703	0.000000	6.596703
O	4.397802	2.198901	6.596703
Sr	6.596703	2.198901	6.596703
Mo	4.397802	4.397802	0.000000
O	6.596703	6.596703	0.000000
O	6.596703	4.397802	2.198901
O	4.397802	6.596703	2.198901
Sr	6.596703	6.596703	2.198901
Mo	4.397802	4.397802	4.397802
O	6.596703	6.596703	4.397802
O	6.596703	4.397802	6.596703
O	4.397802	6.596703	6.596703
Sr	6.596703	6.596703	6.596703
