40

Cd	2.069980	2.069980	2.069980
La	0.000000	0.000000	0.000000
O	2.069980	2.069980	0.000000
O	0.000000	2.069980	2.069980
O	2.069980	0.000000	2.069980
Cd	2.069980	2.069980	6.209930
La	0.000000	0.000000	4.139950
O	2.069980	2.069980	4.139950
O	0.000000	2.069980	6.209930
O	2.069980	0.000000	6.209930
Cd	2.069980	6.209930	2.069980
La	0.000000	4.139950	0.000000
O	2.069980	6.209930	0.000000
O	0.000000	6.209930	2.069980
O	2.069980	4.139950	2.069980
Cd	2.069980	6.209930	6.209930
La	0.000000	4.139950	4.139950
O	2.069980	6.209930	4.139950
O	0.000000	6.209930	6.209930
O	2.069980	4.139950	6.209930
Cd	6.209930	2.069980	2.069980
La	4.139950	0.000000	0.000000
O	6.209930	2.069980	0.000000
O	4.139950	2.069980	2.069980
O	6.209930	0.000000	2.069980
Cd	6.209930	2.069980	6.209930
La	4.139950	0.000000	4.139950
O	6.209930	2.069980	4.139950
O	4.139950	2.069980	6.209930
O	6.209930	0.000000	6.209930
Cd	6.209930	6.209930	2.069980
La	4.139950	4.139950	0.000000
O	6.209930	6.209930	0.000000
O	4.139950	6.209930	2.069980
O	6.209930	4.139950	2.069980
Cd	6.209930	6.209930	6.209930
La	4.139950	4.139950	4.139950
O	6.209930	6.209930	4.139950
O	4.139950	6.209930	6.209930
O	6.209930	4.139950	6.209930
