40

O	0.000000	2.206202	2.206202
O	2.206202	0.000000	2.206202
O	2.206202	2.206202	0.000000
Sr	2.206202	2.206202	2.206202
Y	0.000000	0.000000	0.000000
O	0.000000	2.206202	6.618605
O	2.206202	0.000000	6.618605
O	2.206202	2.206202	4.412404
Sr	2.206202	2.206202	6.618605
Y	0.000000	0.000000	4.412404
O	0.000000	6.618605	2.206202
O	2.206202	4.412404	2.206202
O	2.206202	6.618605	0.000000
Sr	2.206202	6.618605	2.206202
Y	0.000000	4.412404	0.000000
O	0.000000	6.618605	6.618605
O	2.206202	4.412404	6.618605
O	2.206202	6.618605	4.412404
Sr	2.206202	6.618605	6.618605
Y	0.000000	4.412404	4.412404
O	4.412404	2.206202	2.206202
O	6.618605	0.000000	2.206202
O	6.618605	2.206202	0.000000
Sr	6.618605	2.206202	2.206202
Y	4.412404	0.000000	0.000000
O	4.412404	2.206202	6.618605
O	6.618605	0.000000	6.618605
O	6.618605	2.206202	4.412404
Sr	6.618605	2.206202	6.618605
Y	4.412404	0.000000	4.412404
O	4.412404	6.618605	2.206202
O	6.618605	4.412404	2.206202
O	6.618605	6.618605	0.000000
Sr	6.618605	6.618605	2.206202
Y	4.412404	4.412404	0.000000
O	4.412404	6.618605	6.618605
O	6.618605	4.412404	6.618605
O	6.618605	6.618605	4.412404
Sr	6.618605	6.618605	6.618605
Y	4.412404	4.412404	4.412404
