40

O	2.398309	2.398309	2.398309
Yb	2.398309	0.000000	2.398309
Yb	0.000000	2.398309	2.398309
Yb	2.398309	2.398309	0.000000
Pb	0.000000	0.000000	0.000000
O	2.398309	2.398309	7.194928
Yb	2.398309	0.000000	7.194928
Yb	0.000000	2.398309	7.194928
Yb	2.398309	2.398309	4.796619
Pb	0.000000	0.000000	4.796619
O	2.398309	7.194928	2.398309
Yb	2.398309	4.796619	2.398309
Yb	0.000000	7.194928	2.398309
Yb	2.398309	7.194928	0.000000
Pb	0.000000	4.796619	0.000000
O	2.398309	7.194928	7.194928
Yb	2.398309	4.796619	7.194928
Yb	0.000000	7.194928	7.194928
Yb	2.398309	7.194928	4.796619
Pb	0.000000	4.796619	4.796619
O	7.194928	2.398309	2.398309
Yb	7.194928	0.000000	2.398309
Yb	4.796619	2.398309	2.398309
Yb	7.194928	2.398309	0.000000
Pb	4.796619	0.000000	0.000000
O	7.194928	2.398309	7.194928
Yb	7.194928	0.000000	7.194928
Yb	4.796619	2.398309	7.194928
Yb	7.194928	2.398309	4.796619
Pb	4.796619	0.000000	4.796619
O	7.194928	7.194928	2.398309
Yb	7.194928	4.796619	2.398309
Yb	4.796619	7.194928	2.398309
Yb	7.194928	7.194928	0.000000
Pb	4.796619	4.796619	0.000000
O	7.194928	7.194928	7.194928
Yb	7.194928	4.796619	7.194928
Yb	4.796619	7.194928	7.194928
Yb	7.194928	7.194928	4.796619
Pb	4.796619	4.796619	4.796619
