40

Nb	2.004691	2.004691	2.004691
O	2.004691	2.004691	0.000000
O	2.004691	0.000000	2.004691
O	0.000000	2.004691	2.004691
Pd	0.000000	0.000000	0.000000
Nb	2.004691	2.004691	6.014072
O	2.004691	2.004691	4.009381
O	2.004691	0.000000	6.014072
O	0.000000	2.004691	6.014072
Pd	0.000000	0.000000	4.009381
Nb	2.004691	6.014072	2.004691
O	2.004691	6.014072	0.000000
O	2.004691	4.009381	2.004691
O	0.000000	6.014072	2.004691
Pd	0.000000	4.009381	0.000000
Nb	2.004691	6.014072	6.014072
O	2.004691	6.014072	4.009381
O	2.004691	4.009381	6.014072
O	0.000000	6.014072	6.014072
Pd	0.000000	4.009381	4.009381
Nb	6.014072	2.004691	2.004691
O	6.014072	2.004691	0.000000
O	6.014072	0.000000	2.004691
O	4.009381	2.004691	2.004691
Pd	4.009381	0.000000	0.000000
Nb	6.014072	2.004691	6.014072
O	6.014072	2.004691	4.009381
O	6.014072	0.000000	6.014072
O	4.009381	2.004691	6.014072
Pd	4.009381	0.000000	4.009381
Nb	6.014072	6.014072	2.004691
O	6.014072	6.014072	0.000000
O	6.014072	4.009381	2.004691
O	4.009381	6.014072	2.004691
Pd	4.009381	4.009381	0.000000
Nb	6.014072	6.014072	6.014072
O	6.014072	6.014072	4.009381
O	6.014072	4.009381	6.014072
O	4.009381	6.014072	6.014072
Pd	4.009381	4.009381	4.009381
