40

Ca	2.267630	2.267630	2.267630
Cs	0.000000	0.000000	0.000000
O	2.267630	2.267630	0.000000
O	2.267630	0.000000	2.267630
O	0.000000	2.267630	2.267630
Ca	2.267630	2.267630	6.802890
Cs	0.000000	0.000000	4.535260
O	2.267630	2.267630	4.535260
O	2.267630	0.000000	6.802890
O	0.000000	2.267630	6.802890
Ca	2.267630	6.802890	2.267630
Cs	0.000000	4.535260	0.000000
O	2.267630	6.802890	0.000000
O	2.267630	4.535260	2.267630
O	0.000000	6.802890	2.267630
Ca	2.267630	6.802890	6.802890
Cs	0.000000	4.535260	4.535260
O	2.267630	6.802890	4.535260
O	2.267630	4.535260	6.802890
O	0.000000	6.802890	6.802890
Ca	6.802890	2.267630	2.267630
Cs	4.535260	0.000000	0.000000
O	6.802890	2.267630	0.000000
O	6.802890	0.000000	2.267630
O	4.535260	2.267630	2.267630
Ca	6.802890	2.267630	6.802890
Cs	4.535260	0.000000	4.535260
O	6.802890	2.267630	4.535260
O	6.802890	0.000000	6.802890
O	4.535260	2.267630	6.802890
Ca	6.802890	6.802890	2.267630
Cs	4.535260	4.535260	0.000000
O	6.802890	6.802890	0.000000
O	6.802890	4.535260	2.267630
O	4.535260	6.802890	2.267630
Ca	6.802890	6.802890	6.802890
Cs	4.535260	4.535260	4.535260
O	6.802890	6.802890	4.535260
O	6.802890	4.535260	6.802890
O	4.535260	6.802890	6.802890
