40

Au	2.067662	2.067662	2.067662
O	2.067662	2.067662	0.000000
O	2.067662	0.000000	2.067662
O	0.000000	2.067662	2.067662
Tl	0.000000	0.000000	0.000000
Au	2.067662	2.067662	6.202986
O	2.067662	2.067662	4.135324
O	2.067662	0.000000	6.202986
O	0.000000	2.067662	6.202986
Tl	0.000000	0.000000	4.135324
Au	2.067662	6.202986	2.067662
O	2.067662	6.202986	0.000000
O	2.067662	4.135324	2.067662
O	0.000000	6.202986	2.067662
Tl	0.000000	4.135324	0.000000
Au	2.067662	6.202986	6.202986
O	2.067662	6.202986	4.135324
O	2.067662	4.135324	6.202986
O	0.000000	6.202986	6.202986
Tl	0.000000	4.135324	4.135324
Au	6.202986	2.067662	2.067662
O	6.202986	2.067662	0.000000
O	6.202986	0.000000	2.067662
O	4.135324	2.067662	2.067662
Tl	4.135324	0.000000	0.000000
Au	6.202986	2.067662	6.202986
O	6.202986	2.067662	4.135324
O	6.202986	0.000000	6.202986
O	4.135324	2.067662	6.202986
Tl	4.135324	0.000000	4.135324
Au	6.202986	6.202986	2.067662
O	6.202986	6.202986	0.000000
O	6.202986	4.135324	2.067662
O	4.135324	6.202986	2.067662
Tl	4.135324	4.135324	0.000000
Au	6.202986	6.202986	6.202986
O	6.202986	6.202986	4.135324
O	6.202986	4.135324	6.202986
O	4.135324	6.202986	6.202986
Tl	4.135324	4.135324	4.135324
