40

Cd	0.000000	0.000000	0.000000
F	0.000000	1.957525	1.957525
F	1.957525	0.000000	1.957525
F	1.957525	1.957525	0.000000
O	1.957525	1.957525	1.957525
Cd	0.000000	0.000000	3.915050
F	0.000000	1.957525	5.872575
F	1.957525	0.000000	5.872575
F	1.957525	1.957525	3.915050
O	1.957525	1.957525	5.872575
Cd	0.000000	3.915050	0.000000
F	0.000000	5.872575	1.957525
F	1.957525	3.915050	1.957525
F	1.957525	5.872575	0.000000
O	1.957525	5.872575	1.957525
Cd	0.000000	3.915050	3.915050
F	0.000000	5.872575	5.872575
F	1.957525	3.915050	5.872575
F	1.957525	5.872575	3.915050
O	1.957525	5.872575	5.872575
Cd	3.915050	0.000000	0.000000
F	3.915050	1.957525	1.957525
F	5.872575	0.000000	1.957525
F	5.872575	1.957525	0.000000
O	5.872575	1.957525	1.957525
Cd	3.915050	0.000000	3.915050
F	3.915050	1.957525	5.872575
F	5.872575	0.000000	5.872575
F	5.872575	1.957525	3.915050
O	5.872575	1.957525	5.872575
Cd	3.915050	3.915050	0.000000
F	3.915050	5.872575	1.957525
F	5.872575	3.915050	1.957525
F	5.872575	5.872575	0.000000
O	5.872575	5.872575	1.957525
Cd	3.915050	3.915050	3.915050
F	3.915050	5.872575	5.872575
F	5.872575	3.915050	5.872575
F	5.872575	5.872575	3.915050
O	5.872575	5.872575	5.872575
