112

Ba	0.000000	0.000000	0.000000
Ba	2.476008	-2.476846	-2.476846
O	3.903901	-1.047806	-1.047806
O	-1.048115	1.047806	-3.905895
O	1.048115	-1.047806	-3.905895
O	1.427893	1.429039	-1.429039
O	6.000131	1.047806	-1.047806
O	1.427893	3.524652	-3.524652
O	3.524123	3.524652	-1.429039
O	3.524123	1.429039	-3.524652
Yb	-1.238004	-1.238423	-3.715269
Yb	1.238004	1.238423	-3.715269
Yb	3.714012	1.238423	-1.238423
Yb	6.190020	-1.238423	-1.238423
Ba	4.952014	4.953696	0.000000
Ba	7.428022	2.476850	-2.476846
O	8.855916	3.905890	-1.047806
O	3.903899	6.001502	-3.905895
O	6.000129	3.905890	-3.905895
O	6.379908	6.382736	-1.429039
O	10.952145	6.001502	-1.047806
O	6.379908	8.478348	-3.524652
O	8.476137	8.478348	-1.429039
O	8.476137	6.382736	-3.524652
Yb	3.714010	3.715273	-3.715269
Yb	6.190018	6.192119	-3.715269
Yb	8.666026	6.192119	-1.238423
Yb	11.142034	3.715273	-1.238423
Ba	-4.952014	0.000000	-4.953696
Ba	-2.476006	-2.476846	-7.430542
O	-1.048113	-1.047806	-6.001502
O	-6.000129	1.047806	-8.859591
O	-3.903899	-1.047806	-8.859591
O	-3.524121	1.429039	-6.382736
O	1.048117	1.047806	-6.001502
O	-3.524121	3.524652	-8.478348
O	-1.427891	3.524652	-6.382736
O	-1.427891	1.429039	-8.478348
Yb	-6.190018	-1.238423	-8.668965
Yb	-3.714010	1.238423	-8.668965
Yb	-1.238002	1.238423	-6.192119
Yb	1.238006	-1.238423	-6.192119
Ba	0.000000	4.953696	-4.953696
Ba	2.476008	2.476850	-7.430542
O	3.903901	3.905890	-6.001502
O	-1.048115	6.001502	-8.859591
O	1.048115	3.905890	-8.859591
O	1.427893	6.382736	-6.382736
O	6.000131	6.001502	-6.001502
O	1.427893	8.478348	-8.478348
O	3.524123	8.478348	-6.382736
O	3.524123	6.382736	-8.478348
Yb	-1.238004	3.715273	-8.668965
Yb	1.238004	6.192119	-8.668965
Yb	3.714012	6.192119	-6.192119
Yb	6.190020	3.715273	-6.192119
Ba	4.952014	-4.953696	0.000000
Ba	7.428022	-7.430542	-2.476846
O	8.855916	-6.001502	-1.047806
O	3.903899	-3.905890	-3.905895
O	6.000129	-6.001502	-3.905895
O	6.379908	-3.524657	-1.429039
O	10.952145	-3.905890	-1.047806
O	6.379908	-1.429044	-3.524652
O	8.476137	-1.429044	-1.429039
O	8.476137	-3.524657	-3.524652
Yb	3.714010	-6.192119	-3.715269
Yb	6.190018	-3.715273	-3.715269
Yb	8.666026	-3.715273	-1.238423
Yb	11.142034	-6.192119	-1.238423
Ba	9.904028	0.000000	0.000000
Ba	12.380036	-2.476846	-2.476846
O	13.807930	-1.047806	-1.047806
O	8.855914	1.047806	-3.905895
O	10.952143	-1.047806	-3.905895
O	11.331922	1.429039	-1.429039
O	15.904159	1.047806	-1.047806
O	11.331922	3.524652	-3.524652
O	13.428151	3.524652	-1.429039
O	13.428151	1.429039	-3.524652
Yb	8.666024	-1.238423	-3.715269
Yb	11.142032	1.238423	-3.715269
Yb	13.618041	1.238423	-1.238423
Yb	16.094049	-1.238423	-1.238423
Ba	0.000000	-4.953696	-4.953696
Ba	2.476008	-7.430542	-7.430542
O	3.903901	-6.001502	-6.001502
O	-1.048115	-3.905890	-8.859591
O	1.048115	-6.001502	-8.859591
O	1.427893	-3.524657	-6.382736
O	6.000131	-3.905890	-6.001502
O	1.427893	-1.429044	-8.478348
O	3.524123	-1.429044	-6.382736
O	3.524123	-3.524657	-8.478348
Yb	-1.238004	-6.192119	-8.668965
Yb	1.238004	-3.715273	-8.668965
Yb	3.714012	-3.715273	-6.192119
Yb	6.190020	-6.192119	-6.192119
Ba	4.952014	0.000000	-4.953696
Ba	7.428022	-2.476846	-7.430542
O	8.855916	-1.047806	-6.001502
O	3.903899	1.047806	-8.859591
O	6.000129	-1.047806	-8.859591
O	6.379908	1.429039	-6.382736
O	10.952145	1.047806	-6.001502
O	6.379908	3.524652	-8.478348
O	8.476137	3.524652	-6.382736
O	8.476137	1.429039	-8.478348
Yb	3.714010	-1.238423	-8.668965
Yb	6.190018	1.238423	-8.668965
Yb	8.666026	1.238423	-6.192119
Yb	11.142034	-1.238423	-6.192119
