40

In	0.000000	0.000000	0.000000
O	1.949801	1.949801	0.000000
O	1.949801	0.000000	1.949801
O	0.000000	1.949801	1.949801
Ti	1.949801	1.949801	1.949801
In	0.000000	0.000000	3.899610
O	1.949801	1.949801	3.899610
O	1.949801	0.000000	5.849412
O	0.000000	1.949801	5.849412
Ti	1.949801	1.949801	5.849412
In	0.000000	3.899610	0.000000
O	1.949801	5.849412	0.000000
O	1.949801	3.899610	1.949801
O	0.000000	5.849412	1.949801
Ti	1.949801	5.849412	1.949801
In	0.000000	3.899610	3.899610
O	1.949801	5.849412	3.899610
O	1.949801	3.899610	5.849412
O	0.000000	5.849412	5.849412
Ti	1.949801	5.849412	5.849412
In	3.899610	0.000000	0.000000
O	5.849412	1.949801	0.000000
O	5.849412	0.000000	1.949801
O	3.899610	1.949801	1.949801
Ti	5.849412	1.949801	1.949801
In	3.899610	0.000000	3.899610
O	5.849412	1.949801	3.899610
O	5.849412	0.000000	5.849412
O	3.899610	1.949801	5.849412
Ti	5.849412	1.949801	5.849412
In	3.899610	3.899610	0.000000
O	5.849412	5.849412	0.000000
O	5.849412	3.899610	1.949801
O	3.899610	5.849412	1.949801
Ti	5.849412	5.849412	1.949801
In	3.899610	3.899610	3.899610
O	5.849412	5.849412	3.899610
O	5.849412	3.899610	5.849412
O	3.899610	5.849412	5.849412
Ti	5.849412	5.849412	5.849412
