112

Mg	0.000000	0.000000	0.000000
Mg	2.145849	-2.146323	-2.146323
O	3.223106	-1.068181	-1.068181
O	-1.068593	1.068181	-3.224465
O	1.068593	-1.068181	-3.224465
O	1.077257	1.078142	-1.078142
O	5.360291	1.068181	-1.068181
O	1.077257	3.214504	-3.214504
O	3.214442	3.214504	-1.078142
O	3.214442	1.078142	-3.214504
W	-1.072925	-1.073162	-3.219485
W	3.218774	1.073162	-1.073162
W	5.364623	-1.073162	-1.073162
W	1.072925	1.073162	-3.219485
Mg	4.291698	4.292646	0.000000
Mg	6.437548	2.146323	-2.146323
O	7.514804	3.224465	-1.068181
O	3.223106	5.360828	-3.224465
O	5.360291	3.224465	-3.224465
O	5.368955	5.370788	-1.078142
O	9.651989	5.360828	-1.068181
O	5.368955	7.507151	-3.214504
O	7.506140	7.507151	-1.078142
O	7.506140	5.370788	-3.214504
W	3.218774	3.219485	-3.219485
W	7.510472	5.365808	-1.073162
W	9.656321	3.219485	-1.073162
W	5.364623	5.365808	-3.219485
Mg	-4.291698	0.000000	-4.292646
Mg	-2.145849	-2.146323	-6.438969
O	-1.068593	-1.068181	-5.360828
O	-5.360291	1.068181	-7.517111
O	-3.223106	-1.068181	-7.517111
O	-3.214442	1.078142	-5.370788
O	1.068593	1.068181	-5.360828
O	-3.214442	3.214504	-7.507151
O	-1.077257	3.214504	-5.370788
O	-1.077257	1.078142	-7.507151
W	-5.364623	-1.073162	-7.512131
W	-1.072925	1.073162	-5.365808
W	1.072925	-1.073162	-5.365808
W	-3.218774	1.073162	-7.512131
Mg	0.000000	4.292646	-4.292646
Mg	2.145849	2.146323	-6.438969
O	3.223106	3.224465	-5.360828
O	-1.068593	5.360828	-7.517111
O	1.068593	3.224465	-7.517111
O	1.077257	5.370788	-5.370788
O	5.360291	5.360828	-5.360828
O	1.077257	7.507151	-7.507151
O	3.214442	7.507151	-5.370788
O	3.214442	5.370788	-7.507151
W	-1.072925	3.219485	-7.512131
W	3.218774	5.365808	-5.365808
W	5.364623	3.219485	-5.365808
W	1.072925	5.365808	-7.512131
Mg	4.291698	-4.292646	0.000000
Mg	6.437548	-6.438969	-2.146323
O	7.514804	-5.360828	-1.068181
O	3.223106	-3.224465	-3.224465
O	5.360291	-5.360828	-3.224465
O	5.368955	-3.214504	-1.078142
O	9.651989	-3.224465	-1.068181
O	5.368955	-1.078142	-3.214504
O	7.506140	-1.078142	-1.078142
O	7.506140	-3.214504	-3.214504
W	3.218774	-5.365808	-3.219485
W	7.510472	-3.219485	-1.073162
W	9.656321	-5.365808	-1.073162
W	5.364623	-3.219485	-3.219485
Mg	8.583397	0.000000	0.000000
Mg	10.729246	-2.146323	-2.146323
O	11.806503	-1.068181	-1.068181
O	7.514804	1.068181	-3.224465
O	9.651989	-1.068181	-3.224465
O	9.660653	1.078142	-1.078142
O	13.943688	1.068181	-1.068181
O	9.660653	3.214504	-3.214504
O	11.797839	3.214504	-1.078142
O	11.797839	1.078142	-3.214504
W	7.510472	-1.073162	-3.219485
W	11.802171	1.073162	-1.073162
W	13.948020	-1.073162	-1.073162
W	9.656321	1.073162	-3.219485
Mg	0.000000	-4.292646	-4.292646
Mg	2.145849	-6.438969	-6.438969
O	3.223106	-5.360828	-5.360828
O	-1.068593	-3.224465	-7.517111
O	1.068593	-5.360828	-7.517111
O	1.077257	-3.214504	-5.370788
O	5.360291	-3.224465	-5.360828
O	1.077257	-1.078142	-7.507151
O	3.214442	-1.078142	-5.370788
O	3.214442	-3.214504	-7.507151
W	-1.072925	-5.365808	-7.512131
W	3.218774	-3.219485	-5.365808
W	5.364623	-5.365808	-5.365808
W	1.072925	-3.219485	-7.512131
Mg	4.291698	0.000000	-4.292646
Mg	6.437548	-2.146323	-6.438969
O	7.514804	-1.068181	-5.360828
O	3.223106	1.068181	-7.517111
O	5.360291	-1.068181	-7.517111
O	5.368955	1.078142	-5.370788
O	9.651989	1.068181	-5.360828
O	5.368955	3.214504	-7.507151
O	7.506140	3.214504	-5.370788
O	7.506140	1.078142	-7.507151
W	3.218774	-1.073162	-7.512131
W	7.510472	1.073162	-5.365808
W	9.656321	-1.073162	-5.365808
W	5.364623	1.073162	-7.512131
