112

In	0.000000	0.000000	0.000000
In	2.142100	-2.142341	-2.142341
Ni	-1.071050	-1.071171	-3.213512
Ni	3.213149	1.071171	-1.071171
Ni	5.355249	-1.071171	-1.071171
Ni	1.071050	1.071171	-3.213512
O	3.335495	-0.948178	-0.948178
O	-0.948704	0.948178	-3.336505
O	0.948704	-0.948178	-3.336505
O	1.193396	1.194163	-1.194163
O	5.232903	0.948178	-0.948178
O	1.193396	3.090520	-3.090520
O	3.090804	3.090520	-1.194163
O	3.090804	1.194163	-3.090520
In	4.284199	4.284683	0.000000
In	6.426299	2.142341	-2.142341
Ni	3.213149	3.213512	-3.213512
Ni	7.497349	5.355853	-1.071171
Ni	9.639448	3.213512	-1.071171
Ni	5.355249	5.355853	-3.213512
O	7.619695	3.336505	-0.948178
O	3.335495	5.232861	-3.336505
O	5.232903	3.336505	-3.336505
O	5.477595	5.478846	-1.194163
O	9.517103	5.232861	-0.948178
O	5.477595	7.375202	-3.090520
O	7.375003	7.375202	-1.194163
O	7.375003	5.478846	-3.090520
In	-4.284199	0.000000	-4.284683
In	-2.142100	-2.142341	-6.427024
Ni	-5.355249	-1.071171	-7.498195
Ni	-1.071050	1.071171	-5.355853
Ni	1.071050	-1.071171	-5.355853
Ni	-3.213149	1.071171	-7.498195
O	-0.948704	-0.948178	-5.232861
O	-5.232903	0.948178	-7.621187
O	-3.335495	-0.948178	-7.621187
O	-3.090804	1.194163	-5.478846
O	0.948704	0.948178	-5.232861
O	-3.090804	3.090520	-7.375202
O	-1.193396	3.090520	-5.478846
O	-1.193396	1.194163	-7.375202
In	0.000000	4.284683	-4.284683
In	2.142100	2.142341	-6.427024
Ni	-1.071050	3.213512	-7.498195
Ni	3.213149	5.355853	-5.355853
Ni	5.355249	3.213512	-5.355853
Ni	1.071050	5.355853	-7.498195
O	3.335495	3.336505	-5.232861
O	-0.948704	5.232861	-7.621187
O	0.948704	3.336505	-7.621187
O	1.193396	5.478846	-5.478846
O	5.232903	5.232861	-5.232861
O	1.193396	7.375202	-7.375202
O	3.090804	7.375202	-5.478846
O	3.090804	5.478846	-7.375202
In	4.284199	-4.284683	0.000000
In	6.426299	-6.427024	-2.142341
Ni	3.213149	-5.355853	-3.213512
Ni	7.497349	-3.213512	-1.071171
Ni	9.639448	-5.355853	-1.071171
Ni	5.355249	-3.213512	-3.213512
O	7.619695	-5.232861	-0.948178
O	3.335495	-3.336505	-3.336505
O	5.232903	-5.232861	-3.336505
O	5.477595	-3.090519	-1.194163
O	9.517103	-3.336505	-0.948178
O	5.477595	-1.194163	-3.090520
O	7.375003	-1.194163	-1.194163
O	7.375003	-3.090519	-3.090520
In	8.568399	0.000000	0.000000
In	10.710498	-2.142341	-2.142341
Ni	7.497349	-1.071171	-3.213512
Ni	11.781548	1.071171	-1.071171
Ni	13.923648	-1.071171	-1.071171
Ni	9.639448	1.071171	-3.213512
O	11.903894	-0.948178	-0.948178
O	7.619695	0.948178	-3.336505
O	9.517103	-0.948178	-3.336505
O	9.761794	1.194163	-1.194163
O	13.801302	0.948178	-0.948178
O	9.761794	3.090520	-3.090520
O	11.659202	3.090520	-1.194163
O	11.659202	1.194163	-3.090520
In	0.000000	-4.284683	-4.284683
In	2.142100	-6.427024	-6.427024
Ni	-1.071050	-5.355853	-7.498195
Ni	3.213149	-3.213512	-5.355853
Ni	5.355249	-5.355853	-5.355853
Ni	1.071050	-3.213512	-7.498195
O	3.335495	-5.232861	-5.232861
O	-0.948704	-3.336505	-7.621187
O	0.948704	-5.232861	-7.621187
O	1.193396	-3.090519	-5.478846
O	5.232903	-3.336505	-5.232861
O	1.193396	-1.194163	-7.375202
O	3.090804	-1.194163	-5.478846
O	3.090804	-3.090519	-7.375202
In	4.284199	0.000000	-4.284683
In	6.426299	-2.142341	-6.427024
Ni	3.213149	-1.071171	-7.498195
Ni	7.497349	1.071171	-5.355853
Ni	9.639448	-1.071171	-5.355853
Ni	5.355249	1.071171	-7.498195
O	7.619695	-0.948178	-5.232861
O	3.335495	0.948178	-7.621187
O	5.232903	-0.948178	-7.621187
O	5.477595	1.194163	-5.478846
O	9.517103	0.948178	-5.232861
O	5.477595	3.090520	-7.375202
O	7.375003	3.090520	-5.478846
O	7.375003	1.194163	-7.375202
