40

K	2.332474	2.332474	2.332474
O	2.332474	2.332474	0.000000
O	2.332474	0.000000	2.332474
O	0.000000	2.332474	2.332474
Rb	0.000000	0.000000	0.000000
K	2.332474	2.332474	6.997418
O	2.332474	2.332474	4.664944
O	2.332474	0.000000	6.997418
O	0.000000	2.332474	6.997418
Rb	0.000000	0.000000	4.664944
K	2.332474	6.997418	2.332474
O	2.332474	6.997418	0.000000
O	2.332474	4.664944	2.332474
O	0.000000	6.997418	2.332474
Rb	0.000000	4.664944	0.000000
K	2.332474	6.997418	6.997418
O	2.332474	6.997418	4.664944
O	2.332474	4.664944	6.997418
O	0.000000	6.997418	6.997418
Rb	0.000000	4.664944	4.664944
K	6.997418	2.332474	2.332474
O	6.997418	2.332474	0.000000
O	6.997418	0.000000	2.332474
O	4.664944	2.332474	2.332474
Rb	4.664944	0.000000	0.000000
K	6.997418	2.332474	6.997418
O	6.997418	2.332474	4.664944
O	6.997418	0.000000	6.997418
O	4.664944	2.332474	6.997418
Rb	4.664944	0.000000	4.664944
K	6.997418	6.997418	2.332474
O	6.997418	6.997418	0.000000
O	6.997418	4.664944	2.332474
O	4.664944	6.997418	2.332474
Rb	4.664944	4.664944	0.000000
K	6.997418	6.997418	6.997418
O	6.997418	6.997418	4.664944
O	6.997418	4.664944	6.997418
O	4.664944	6.997418	6.997418
Rb	4.664944	4.664944	4.664944
