40

La	2.215550	2.215550	2.215550
O	2.215550	2.215550	0.000000
O	0.000000	2.215550	2.215550
O	2.215550	0.000000	2.215550
Yb_2	0.000000	0.000000	0.000000
La	2.215550	2.215550	6.646653
O	2.215550	2.215550	4.431103
O	0.000000	2.215550	6.646653
O	2.215550	0.000000	6.646653
Yb_2	0.000000	0.000000	4.431103
La	2.215550	6.646653	2.215550
O	2.215550	6.646653	0.000000
O	0.000000	6.646653	2.215550
O	2.215550	4.431103	2.215550
Yb_2	0.000000	4.431103	0.000000
La	2.215550	6.646653	6.646653
O	2.215550	6.646653	4.431103
O	0.000000	6.646653	6.646653
O	2.215550	4.431103	6.646653
Yb_2	0.000000	4.431103	4.431103
La	6.646653	2.215550	2.215550
O	6.646653	2.215550	0.000000
O	4.431103	2.215550	2.215550
O	6.646653	0.000000	2.215550
Yb_2	4.431103	0.000000	0.000000
La	6.646653	2.215550	6.646653
O	6.646653	2.215550	4.431103
O	4.431103	2.215550	6.646653
O	6.646653	0.000000	6.646653
Yb_2	4.431103	0.000000	4.431103
La	6.646653	6.646653	2.215550
O	6.646653	6.646653	0.000000
O	4.431103	6.646653	2.215550
O	6.646653	4.431103	2.215550
Yb_2	4.431103	4.431103	0.000000
La	6.646653	6.646653	6.646653
O	6.646653	6.646653	4.431103
O	4.431103	6.646653	6.646653
O	6.646653	4.431103	6.646653
Yb_2	4.431103	4.431103	4.431103
