40

La	0.000000	0.000000	0.000000
O	2.095038	2.095038	0.000000
O	2.095038	0.000000	2.095038
O	0.000000	2.095038	2.095038
Yb	2.095038	2.095038	2.095038
La	0.000000	0.000000	4.190076
O	2.095038	2.095038	4.190076
O	2.095038	0.000000	6.285114
O	0.000000	2.095038	6.285114
Yb	2.095038	2.095038	6.285114
La	0.000000	4.190076	0.000000
O	2.095038	6.285114	0.000000
O	2.095038	4.190076	2.095038
O	0.000000	6.285114	2.095038
Yb	2.095038	6.285114	2.095038
La	0.000000	4.190076	4.190076
O	2.095038	6.285114	4.190076
O	2.095038	4.190076	6.285114
O	0.000000	6.285114	6.285114
Yb	2.095038	6.285114	6.285114
La	4.190076	0.000000	0.000000
O	6.285114	2.095038	0.000000
O	6.285114	0.000000	2.095038
O	4.190076	2.095038	2.095038
Yb	6.285114	2.095038	2.095038
La	4.190076	0.000000	4.190076
O	6.285114	2.095038	4.190076
O	6.285114	0.000000	6.285114
O	4.190076	2.095038	6.285114
Yb	6.285114	2.095038	6.285114
La	4.190076	4.190076	0.000000
O	6.285114	6.285114	0.000000
O	6.285114	4.190076	2.095038
O	4.190076	6.285114	2.095038
Yb	6.285114	6.285114	2.095038
La	4.190076	4.190076	4.190076
O	6.285114	6.285114	4.190076
O	6.285114	4.190076	6.285114
O	4.190076	6.285114	6.285114
Yb	6.285114	6.285114	6.285114
