40

F	0.000000	2.046652	2.046652
F	2.046652	0.000000	2.046652
F	2.046652	2.046652	0.000000
O	2.046652	2.046652	2.046652
Sb	0.000000	0.000000	0.000000
F	0.000000	2.046652	6.139957
F	2.046652	0.000000	6.139957
F	2.046652	2.046652	4.093305
O	2.046652	2.046652	6.139957
Sb	0.000000	0.000000	4.093305
F	0.000000	6.139957	2.046652
F	2.046652	4.093305	2.046652
F	2.046652	6.139957	0.000000
O	2.046652	6.139957	2.046652
Sb	0.000000	4.093305	0.000000
F	0.000000	6.139957	6.139957
F	2.046652	4.093305	6.139957
F	2.046652	6.139957	4.093305
O	2.046652	6.139957	6.139957
Sb	0.000000	4.093305	4.093305
F	4.093305	2.046652	2.046652
F	6.139957	0.000000	2.046652
F	6.139957	2.046652	0.000000
O	6.139957	2.046652	2.046652
Sb	4.093305	0.000000	0.000000
F	4.093305	2.046652	6.139957
F	6.139957	0.000000	6.139957
F	6.139957	2.046652	4.093305
O	6.139957	2.046652	6.139957
Sb	4.093305	0.000000	4.093305
F	4.093305	6.139957	2.046652
F	6.139957	4.093305	2.046652
F	6.139957	6.139957	0.000000
O	6.139957	6.139957	2.046652
Sb	4.093305	4.093305	0.000000
F	4.093305	6.139957	6.139957
F	6.139957	4.093305	6.139957
F	6.139957	6.139957	4.093305
O	6.139957	6.139957	6.139957
Sb	4.093305	4.093305	4.093305
