40

Hf	0.000000	0.000000	0.000000
Mn	1.909772	1.909772	1.909772
O	0.000000	1.909772	1.909772
O	1.909772	0.000000	1.909772
O	1.909772	1.909772	0.000000
Hf	0.000000	0.000000	3.819544
Mn	1.909772	1.909772	5.729316
O	0.000000	1.909772	5.729316
O	1.909772	0.000000	5.729316
O	1.909772	1.909772	3.819544
Hf	0.000000	3.819544	0.000000
Mn	1.909772	5.729316	1.909772
O	0.000000	5.729316	1.909772
O	1.909772	3.819544	1.909772
O	1.909772	5.729316	0.000000
Hf	0.000000	3.819544	3.819544
Mn	1.909772	5.729316	5.729316
O	0.000000	5.729316	5.729316
O	1.909772	3.819544	5.729316
O	1.909772	5.729316	3.819544
Hf	3.819544	0.000000	0.000000
Mn	5.729316	1.909772	1.909772
O	3.819544	1.909772	1.909772
O	5.729316	0.000000	1.909772
O	5.729316	1.909772	0.000000
Hf	3.819544	0.000000	3.819544
Mn	5.729316	1.909772	5.729316
O	3.819544	1.909772	5.729316
O	5.729316	0.000000	5.729316
O	5.729316	1.909772	3.819544
Hf	3.819544	3.819544	0.000000
Mn	5.729316	5.729316	1.909772
O	3.819544	5.729316	1.909772
O	5.729316	3.819544	1.909772
O	5.729316	5.729316	0.000000
Hf	3.819544	3.819544	3.819544
Mn	5.729316	5.729316	5.729316
O	3.819544	5.729316	5.729316
O	5.729316	3.819544	5.729316
O	5.729316	5.729316	3.819544
