112

Fe	5.417060	5.417060	5.417060
Fe	3.250230	3.250230	5.417060
Fe	5.417060	3.250230	3.250230
Fe	3.250230	5.417060	3.250230
Mn	0.000000	0.000000	0.000000
Mn	2.166820	2.166820	2.166820
O	3.368610	3.368610	3.368610
O	5.298670	5.298670	3.368610
O	3.368610	5.298670	5.298670
O	5.298670	3.368610	5.298670
O	7.465490	7.465490	7.465490
O	5.535430	5.535430	7.465490
O	5.535430	7.465490	5.535430
O	7.465490	5.535430	5.535430
Fe	9.750702	9.750702	5.417060
Fe	7.583872	7.583872	5.417060
Fe	9.750702	7.583872	3.250230
Fe	7.583872	9.750702	3.250230
Mn	4.333642	4.333642	0.000000
Mn	6.500462	6.500462	2.166820
O	7.702252	7.702252	3.368610
O	9.632312	9.632312	3.368610
O	7.702252	9.632312	5.298670
O	9.632312	7.702252	5.298670
O	11.799132	11.799132	7.465490
O	9.869072	9.869072	7.465490
O	9.869072	11.799132	5.535430
O	11.799132	9.869072	5.535430
Fe	9.750702	5.417060	9.750702
Fe	7.583872	3.250230	9.750702
Fe	9.750702	3.250230	7.583872
Fe	7.583872	5.417060	7.583872
Mn	4.333642	0.000000	4.333642
Mn	6.500462	2.166820	6.500462
O	7.702252	3.368610	7.702252
O	9.632312	5.298670	7.702252
O	7.702252	5.298670	9.632312
O	9.632312	3.368610	9.632312
O	11.799132	7.465490	11.799132
O	9.869072	5.535430	11.799132
O	9.869072	7.465490	9.869072
O	11.799132	5.535430	9.869072
Fe	14.084343	9.750702	9.750702
Fe	11.917513	7.583872	9.750702
Fe	14.084343	7.583872	7.583872
Fe	11.917513	9.750702	7.583872
Mn	8.667283	4.333642	4.333642
Mn	10.834103	6.500462	6.500462
O	12.035893	7.702252	7.702252
O	13.965953	9.632312	7.702252
O	12.035893	9.632312	9.632312
O	13.965953	7.702252	9.632312
O	16.132773	11.799132	11.799132
O	14.202713	9.869072	11.799132
O	14.202713	11.799132	9.869072
O	16.132773	9.869072	9.869072
Fe	5.417060	9.750702	9.750702
Fe	3.250230	7.583872	9.750702
Fe	5.417060	7.583872	7.583872
Fe	3.250230	9.750702	7.583872
Mn	0.000000	4.333642	4.333642
Mn	2.166820	6.500462	6.500462
O	3.368610	7.702252	7.702252
O	5.298670	9.632312	7.702252
O	3.368610	9.632312	9.632312
O	5.298670	7.702252	9.632312
O	7.465490	11.799132	11.799132
O	5.535430	9.869072	11.799132
O	5.535430	11.799132	9.869072
O	7.465490	9.869072	9.869072
Fe	9.750702	14.084343	9.750702
Fe	7.583872	11.917513	9.750702
Fe	9.750702	11.917513	7.583872
Fe	7.583872	14.084343	7.583872
Mn	4.333642	8.667283	4.333642
Mn	6.500462	10.834103	6.500462
O	7.702252	12.035893	7.702252
O	9.632312	13.965953	7.702252
O	7.702252	13.965953	9.632312
O	9.632312	12.035893	9.632312
O	11.799132	16.132773	11.799132
O	9.869072	14.202713	11.799132
O	9.869072	16.132773	9.869072
O	11.799132	14.202713	9.869072
Fe	9.750702	9.750702	14.084343
Fe	7.583872	7.583872	14.084343
Fe	9.750702	7.583872	11.917513
Fe	7.583872	9.750702	11.917513
Mn	4.333642	4.333642	8.667283
Mn	6.500462	6.500462	10.834103
O	7.702252	7.702252	12.035893
O	9.632312	9.632312	12.035893
O	7.702252	9.632312	13.965953
O	9.632312	7.702252	13.965953
O	11.799132	11.799132	16.132773
O	9.869072	9.869072	16.132773
O	9.869072	11.799132	14.202713
O	11.799132	9.869072	14.202713
Fe	14.084343	14.084343	14.084343
Fe	11.917513	11.917513	14.084343
Fe	14.084343	11.917513	11.917513
Fe	11.917513	14.084343	11.917513
Mn	8.667283	8.667283	8.667283
Mn	10.834103	10.834103	10.834103
O	12.035893	12.035893	12.035893
O	13.965953	13.965953	12.035893
O	12.035893	13.965953	13.965953
O	13.965953	12.035893	13.965953
O	16.132773	16.132773	16.132773
O	14.202713	14.202713	16.132773
O	14.202713	16.132773	14.202713
O	16.132773	14.202713	14.202713
