40

Cr	1.928865	1.928865	1.928865
O	0.000000	1.928865	1.928865
O	1.928865	0.000000	1.928865
O	1.928865	1.928865	0.000000
Te	0.000000	0.000000	0.000000
Cr	1.928865	1.928865	5.786596
O	0.000000	1.928865	5.786596
O	1.928865	0.000000	5.786596
O	1.928865	1.928865	3.857730
Te	0.000000	0.000000	3.857730
Cr	1.928865	5.786596	1.928865
O	0.000000	5.786596	1.928865
O	1.928865	3.857730	1.928865
O	1.928865	5.786596	0.000000
Te	0.000000	3.857730	0.000000
Cr	1.928865	5.786596	5.786596
O	0.000000	5.786596	5.786596
O	1.928865	3.857730	5.786596
O	1.928865	5.786596	3.857730
Te	0.000000	3.857730	3.857730
Cr	5.786596	1.928865	1.928865
O	3.857730	1.928865	1.928865
O	5.786596	0.000000	1.928865
O	5.786596	1.928865	0.000000
Te	3.857730	0.000000	0.000000
Cr	5.786596	1.928865	5.786596
O	3.857730	1.928865	5.786596
O	5.786596	0.000000	5.786596
O	5.786596	1.928865	3.857730
Te	3.857730	0.000000	3.857730
Cr	5.786596	5.786596	1.928865
O	3.857730	5.786596	1.928865
O	5.786596	3.857730	1.928865
O	5.786596	5.786596	0.000000
Te	3.857730	3.857730	0.000000
Cr	5.786596	5.786596	5.786596
O	3.857730	5.786596	5.786596
O	5.786596	3.857730	5.786596
O	5.786596	5.786596	3.857730
Te	3.857730	3.857730	3.857730
