64

O	2.457161	-0.105809	4.526221
O	0.767493	2.336620	4.526221
O	3.301129	2.283715	6.080853
O	3.377602	2.336620	3.109264
Ga	2.476401	1.713170	4.561662
Ga	4.125856	2.854260	7.600044
Tl	5.788127	4.004217	10.662035
Tl	0.814130	0.563214	1.499670
O	2.304214	-0.211618	10.469398
O	0.614546	2.230811	10.469398
O	3.148181	2.177906	12.024030
O	3.224655	2.230811	9.052441
Ga	2.323454	1.607361	10.504839
Ga	3.972908	2.748451	13.543221
Tl	5.635179	3.898408	16.605212
Tl	0.661182	0.457405	7.442848
O	4.145096	4.673239	7.635485
O	2.455428	7.115668	7.635485
O	4.989063	7.062764	9.190117
O	5.065537	7.115668	6.218528
Ga	4.164336	6.492219	7.670926
Ga	5.813790	7.633309	10.709308
Tl	7.476061	8.783265	13.771299
Tl	2.502064	5.342262	4.608934
O	3.992148	4.567430	13.578662
O	2.302480	7.009859	13.578662
O	4.836115	6.956955	15.133294
O	4.912589	7.009859	12.161705
Ga	4.011388	6.386410	13.614103
Ga	5.660842	7.527500	16.652485
Tl	7.323114	8.677456	19.714476
Tl	2.349117	5.236453	10.552112
O	7.524432	-0.211618	7.635485
O	5.834764	2.230811	7.635485
O	8.368399	2.177906	9.190117
O	8.444873	2.230811	6.218528
Ga	7.543672	1.607361	7.670926
Ga	9.193126	2.748451	10.709308
Tl	10.855397	3.898408	13.771299
Tl	5.881401	0.457405	4.608934
O	7.371484	-0.317427	13.578662
O	5.681816	2.125002	13.578662
O	8.215451	2.072097	15.133294
O	8.291925	2.125002	12.161705
Ga	7.390724	1.501552	13.614103
Ga	9.040179	2.642642	16.652485
Tl	10.702450	3.792599	19.714476
Tl	5.728453	0.351596	10.552112
O	9.212366	4.567430	10.744749
O	7.522698	7.009859	10.744749
O	10.056333	6.956955	12.299381
O	10.132807	7.009859	9.327792
Ga	9.231606	6.386410	10.780190
Ga	10.881061	7.527500	13.818572
Tl	12.543332	8.677456	16.880563
Tl	7.569335	5.236453	7.718198
O	9.059418	4.461622	16.687926
O	7.369750	6.904050	16.687926
O	9.903386	6.851146	18.242558
O	9.979859	6.904050	15.270969
Ga	9.078658	6.280601	16.723367
Ga	10.728113	7.421691	19.761749
Tl	12.390384	8.571647	22.823740
Tl	7.416387	5.130644	13.661376
