64

O	2.458047	-0.098487	4.527853
O	0.774658	2.334867	4.527853
O	3.303887	2.285623	6.085933
O	3.375068	2.334867	3.116161
Ga	2.479780	1.715508	4.567886
Ga	4.127993	2.855739	7.603980
Tl	5.797988	4.011039	10.680200
Tl	0.809785	0.560208	1.491666
O	2.315684	-0.196974	10.467398
O	0.632294	2.236380	10.467398
O	3.161523	2.187137	12.025478
O	3.232705	2.236380	9.055706
Ga	2.337417	1.617021	10.507431
Ga	3.985629	2.757252	13.543525
Tl	5.655625	3.912552	16.619745
Tl	0.667421	0.461721	7.431211
O	4.149726	4.669733	7.644014
O	2.466336	7.103087	7.644014
O	4.995565	7.053843	9.202094
O	5.066747	7.103087	6.232322
Ga	4.171459	6.483728	7.684047
Ga	5.819671	7.623959	10.720141
Tl	7.489667	8.779259	13.796361
Tl	2.501463	5.328428	4.607827
O	4.007363	4.571247	13.583559
O	2.323973	7.004600	13.583559
O	4.853202	6.955357	15.141639
O	4.924383	7.004600	12.171867
Ga	4.029096	6.385241	13.623592
Ga	5.677308	7.525472	16.659686
Tl	7.347304	8.680772	19.735906
Tl	2.359100	5.229941	10.547372
O	7.516506	-0.196974	7.644014
O	5.833116	2.236380	7.644014
O	8.362345	2.187137	9.202094
O	8.433527	2.236380	6.232322
Ga	7.538239	1.617021	7.684047
Ga	9.186451	2.757252	10.720141
Tl	10.856447	3.912552	13.796361
Tl	5.868243	0.461721	4.607827
O	7.374142	-0.295460	13.583559
O	5.690752	2.137893	13.583559
O	8.219982	2.088650	15.141639
O	8.291163	2.137893	12.171867
Ga	7.395875	1.518534	13.623592
Ga	9.044088	2.658765	16.659686
Tl	10.714083	3.814065	19.735906
Tl	5.725880	0.363234	10.547372
O	9.208184	4.571247	10.760175
O	7.524794	7.004600	10.760175
O	10.054023	6.955357	12.318255
O	10.125205	7.004600	9.348483
Ga	9.229917	6.385241	10.800208
Ga	10.878130	7.525472	13.836302
Tl	12.548125	8.680772	16.912522
Tl	7.559922	5.229941	7.723988
O	9.065821	4.472760	16.699719
O	7.382431	6.906113	16.699719
O	9.911660	6.856870	18.257800
O	9.982842	6.906113	15.288028
Ga	9.087554	6.286755	16.739753
Ga	10.735766	7.426985	19.775847
Tl	12.405762	8.582285	22.852067
Tl	7.417558	5.131454	13.663533
