40

Ag	2.103823	2.103823	2.103823
Ba	0.000000	0.000000	0.000000
O	2.103823	2.103823	0.000000
O	2.103823	0.000000	2.103823
O	0.000000	2.103823	2.103823
Ag	2.103823	2.103823	6.311468
Ba	0.000000	0.000000	4.207645
O	2.103823	2.103823	4.207645
O	2.103823	0.000000	6.311468
O	0.000000	2.103823	6.311468
Ag	2.103823	6.311468	2.103823
Ba	0.000000	4.207645	0.000000
O	2.103823	6.311468	0.000000
O	2.103823	4.207645	2.103823
O	0.000000	6.311468	2.103823
Ag	2.103823	6.311468	6.311468
Ba	0.000000	4.207645	4.207645
O	2.103823	6.311468	4.207645
O	2.103823	4.207645	6.311468
O	0.000000	6.311468	6.311468
Ag	6.311468	2.103823	2.103823
Ba	4.207645	0.000000	0.000000
O	6.311468	2.103823	0.000000
O	6.311468	0.000000	2.103823
O	4.207645	2.103823	2.103823
Ag	6.311468	2.103823	6.311468
Ba	4.207645	0.000000	4.207645
O	6.311468	2.103823	4.207645
O	6.311468	0.000000	6.311468
O	4.207645	2.103823	6.311468
Ag	6.311468	6.311468	2.103823
Ba	4.207645	4.207645	0.000000
O	6.311468	6.311468	0.000000
O	6.311468	4.207645	2.103823
O	4.207645	6.311468	2.103823
Ag	6.311468	6.311468	6.311468
Ba	4.207645	4.207645	4.207645
O	6.311468	6.311468	4.207645
O	6.311468	4.207645	6.311468
O	4.207645	6.311468	6.311468
