40

F	0.000000	0.000000	0.000000
Hg	2.147569	2.147569	2.147569
O	0.000000	2.147569	2.147569
O	2.147569	0.000000	2.147569
O	2.147569	2.147569	0.000000
F	0.000000	0.000000	4.295138
Hg	2.147569	2.147569	6.442706
O	0.000000	2.147569	6.442706
O	2.147569	0.000000	6.442706
O	2.147569	2.147569	4.295138
F	0.000000	4.295138	0.000000
Hg	2.147569	6.442706	2.147569
O	0.000000	6.442706	2.147569
O	2.147569	4.295138	2.147569
O	2.147569	6.442706	0.000000
F	0.000000	4.295138	4.295138
Hg	2.147569	6.442706	6.442706
O	0.000000	6.442706	6.442706
O	2.147569	4.295138	6.442706
O	2.147569	6.442706	4.295138
F	4.295138	0.000000	0.000000
Hg	6.442706	2.147569	2.147569
O	4.295138	2.147569	2.147569
O	6.442706	0.000000	2.147569
O	6.442706	2.147569	0.000000
F	4.295138	0.000000	4.295138
Hg	6.442706	2.147569	6.442706
O	4.295138	2.147569	6.442706
O	6.442706	0.000000	6.442706
O	6.442706	2.147569	4.295138
F	4.295138	4.295138	0.000000
Hg	6.442706	6.442706	2.147569
O	4.295138	6.442706	2.147569
O	6.442706	4.295138	2.147569
O	6.442706	6.442706	0.000000
F	4.295138	4.295138	4.295138
Hg	6.442706	6.442706	6.442706
O	4.295138	6.442706	6.442706
O	6.442706	4.295138	6.442706
O	6.442706	6.442706	4.295138
