40

O	0.000000	1.974585	1.974585
O	1.974585	0.000000	1.974585
O	1.974585	1.974585	0.000000
P	0.000000	0.000000	0.000000
Re	1.974585	1.974585	1.974585
O	0.000000	1.974585	5.923755
O	1.974585	0.000000	5.923755
O	1.974585	1.974585	3.949170
P	0.000000	0.000000	3.949170
Re	1.974585	1.974585	5.923755
O	0.000000	5.923755	1.974585
O	1.974585	3.949170	1.974585
O	1.974585	5.923755	0.000000
P	0.000000	3.949170	0.000000
Re	1.974585	5.923755	1.974585
O	0.000000	5.923755	5.923755
O	1.974585	3.949170	5.923755
O	1.974585	5.923755	3.949170
P	0.000000	3.949170	3.949170
Re	1.974585	5.923755	5.923755
O	3.949170	1.974585	1.974585
O	5.923755	0.000000	1.974585
O	5.923755	1.974585	0.000000
P	3.949170	0.000000	0.000000
Re	5.923755	1.974585	1.974585
O	3.949170	1.974585	5.923755
O	5.923755	0.000000	5.923755
O	5.923755	1.974585	3.949170
P	3.949170	0.000000	3.949170
Re	5.923755	1.974585	5.923755
O	3.949170	5.923755	1.974585
O	5.923755	3.949170	1.974585
O	5.923755	5.923755	0.000000
P	3.949170	3.949170	0.000000
Re	5.923755	5.923755	1.974585
O	3.949170	5.923755	5.923755
O	5.923755	3.949170	5.923755
O	5.923755	5.923755	3.949170
P	3.949170	3.949170	3.949170
Re	5.923755	5.923755	5.923755
