40

Ac	0.000000	0.000000	0.000000
O	2.012240	0.000000	2.012240
O	0.000000	2.012240	2.012240
O	2.012240	2.012240	0.000000
Rh	2.012240	2.012240	2.012240
Ac	0.000000	0.000000	4.024479
O	2.012240	0.000000	6.036719
O	0.000000	2.012240	6.036719
O	2.012240	2.012240	4.024479
Rh	2.012240	2.012240	6.036719
Ac	0.000000	4.024479	0.000000
O	2.012240	4.024479	2.012240
O	0.000000	6.036719	2.012240
O	2.012240	6.036719	0.000000
Rh	2.012240	6.036719	2.012240
Ac	0.000000	4.024479	4.024479
O	2.012240	4.024479	6.036719
O	0.000000	6.036719	6.036719
O	2.012240	6.036719	4.024479
Rh	2.012240	6.036719	6.036719
Ac	4.024479	0.000000	0.000000
O	6.036719	0.000000	2.012240
O	4.024479	2.012240	2.012240
O	6.036719	2.012240	0.000000
Rh	6.036719	2.012240	2.012240
Ac	4.024479	0.000000	4.024479
O	6.036719	0.000000	6.036719
O	4.024479	2.012240	6.036719
O	6.036719	2.012240	4.024479
Rh	6.036719	2.012240	6.036719
Ac	4.024479	4.024479	0.000000
O	6.036719	4.024479	2.012240
O	4.024479	6.036719	2.012240
O	6.036719	6.036719	0.000000
Rh	6.036719	6.036719	2.012240
Ac	4.024479	4.024479	4.024479
O	6.036719	4.024479	6.036719
O	4.024479	6.036719	6.036719
O	6.036719	6.036719	4.024479
Rh	6.036719	6.036719	6.036719
