40

Cr	0.000000	0.000000	0.000000
Na	1.998515	1.998515	1.998515
O	1.998515	1.998515	0.000000
O	1.998515	0.000000	1.998515
O	0.000000	1.998515	1.998515
Cr	0.000000	0.000000	3.997021
Na	1.998515	1.998515	5.995536
O	1.998515	1.998515	3.997021
O	1.998515	0.000000	5.995536
O	0.000000	1.998515	5.995536
Cr	0.000000	3.997021	0.000000
Na	1.998515	5.995536	1.998515
O	1.998515	5.995536	0.000000
O	1.998515	3.997021	1.998515
O	0.000000	5.995536	1.998515
Cr	0.000000	3.997021	3.997021
Na	1.998515	5.995536	5.995536
O	1.998515	5.995536	3.997021
O	1.998515	3.997021	5.995536
O	0.000000	5.995536	5.995536
Cr	3.997021	0.000000	0.000000
Na	5.995536	1.998515	1.998515
O	5.995536	1.998515	0.000000
O	5.995536	0.000000	1.998515
O	3.997021	1.998515	1.998515
Cr	3.997021	0.000000	3.997021
Na	5.995536	1.998515	5.995536
O	5.995536	1.998515	3.997021
O	5.995536	0.000000	5.995536
O	3.997021	1.998515	5.995536
Cr	3.997021	3.997021	0.000000
Na	5.995536	5.995536	1.998515
O	5.995536	5.995536	0.000000
O	5.995536	3.997021	1.998515
O	3.997021	5.995536	1.998515
Cr	3.997021	3.997021	3.997021
Na	5.995536	5.995536	5.995536
O	5.995536	5.995536	3.997021
O	5.995536	3.997021	5.995536
O	3.997021	5.995536	5.995536
