40

Eu	1.962419	1.962419	1.962419
Ti	0.000000	0.000000	0.000000
O	0.000000	0.000000	1.962419
O	0.000000	1.962419	0.000000
O	1.962419	0.000000	0.000000
Eu	1.962419	1.962419	5.887258
Ti	0.000000	0.000000	3.924839
O	0.000000	0.000000	5.887258
O	0.000000	1.962419	3.924839
O	1.962419	0.000000	3.924839
Eu	1.962419	5.887258	1.962419
Ti	0.000000	3.924839	0.000000
O	0.000000	3.924839	1.962419
O	0.000000	5.887258	0.000000
O	1.962419	3.924839	0.000000
Eu	1.962419	5.887258	5.887258
Ti	0.000000	3.924839	3.924839
O	0.000000	3.924839	5.887258
O	0.000000	5.887258	3.924839
O	1.962419	3.924839	3.924839
Eu	5.887258	1.962419	1.962419
Ti	3.924839	0.000000	0.000000
O	3.924839	0.000000	1.962419
O	3.924839	1.962419	0.000000
O	5.887258	0.000000	0.000000
Eu	5.887258	1.962419	5.887258
Ti	3.924839	0.000000	3.924839
O	3.924839	0.000000	5.887258
O	3.924839	1.962419	3.924839
O	5.887258	0.000000	3.924839
Eu	5.887258	5.887258	1.962419
Ti	3.924839	3.924839	0.000000
O	3.924839	3.924839	1.962419
O	3.924839	5.887258	0.000000
O	5.887258	3.924839	0.000000
Eu	5.887258	5.887258	5.887258
Ti	3.924839	3.924839	3.924839
O	3.924839	3.924839	5.887258
O	3.924839	5.887258	3.924839
O	5.887258	3.924839	3.924839
