40

O	1.924820	1.924820	0.000000
O	0.000000	1.924820	1.924820
O	1.924820	0.000000	1.924820
Ru	1.924820	1.924820	1.924820
Zn	0.000000	0.000000	0.000000
O	1.924820	1.924820	3.849642
O	0.000000	1.924820	5.774462
O	1.924820	0.000000	5.774462
Ru	1.924820	1.924820	5.774462
Zn	0.000000	0.000000	3.849642
O	1.924820	5.774462	0.000000
O	0.000000	5.774462	1.924820
O	1.924820	3.849642	1.924820
Ru	1.924820	5.774462	1.924820
Zn	0.000000	3.849642	0.000000
O	1.924820	5.774462	3.849642
O	0.000000	5.774462	5.774462
O	1.924820	3.849642	5.774462
Ru	1.924820	5.774462	5.774462
Zn	0.000000	3.849642	3.849642
O	5.774462	1.924820	0.000000
O	3.849642	1.924820	1.924820
O	5.774462	0.000000	1.924820
Ru	5.774462	1.924820	1.924820
Zn	3.849642	0.000000	0.000000
O	5.774462	1.924820	3.849642
O	3.849642	1.924820	5.774462
O	5.774462	0.000000	5.774462
Ru	5.774462	1.924820	5.774462
Zn	3.849642	0.000000	3.849642
O	5.774462	5.774462	0.000000
O	3.849642	5.774462	1.924820
O	5.774462	3.849642	1.924820
Ru	5.774462	5.774462	1.924820
Zn	3.849642	3.849642	0.000000
O	5.774462	5.774462	3.849642
O	3.849642	5.774462	5.774462
O	5.774462	3.849642	5.774462
Ru	5.774462	5.774462	5.774462
Zn	3.849642	3.849642	3.849642
