112

O	3.535029	-1.105295	-1.105295
O	-1.105841	1.105295	-3.536475
O	1.105841	-1.105295	-3.536475
O	1.214594	1.215590	-1.215590
O	5.746710	1.105295	-1.105295
O	1.214594	3.426180	-3.426180
O	3.426276	3.426180	-1.215590
O	3.426276	1.215590	-3.426180
Pa	0.000000	0.000000	0.000000
Pa	2.320435	-2.320885	-2.320885
Pd	-1.160217	-1.160443	-3.481328
Pd	3.480652	1.160443	-1.160443
Pd	5.801087	-1.160443	-1.160443
Pd	1.160217	1.160443	-3.481328
O	8.175898	3.536475	-1.105295
O	3.535029	5.747066	-3.536475
O	5.746710	3.536475	-3.536475
O	5.855463	5.857360	-1.215590
O	10.387580	5.747066	-1.105295
O	5.855463	8.067951	-3.426180
O	8.067145	8.067951	-1.215590
O	8.067145	5.857360	-3.426180
Pa	4.640869	4.641770	0.000000
Pa	6.961304	2.320885	-2.320885
Pd	3.480652	3.481328	-3.481328
Pd	8.121521	5.802213	-1.160443
Pd	10.441956	3.481328	-1.160443
Pd	5.801087	5.802213	-3.481328
O	-1.105841	-1.105295	-5.747066
O	-5.746710	1.105295	-8.178245
O	-3.535029	-1.105295	-8.178245
O	-3.426276	1.215590	-5.857360
O	1.105841	1.105295	-5.747066
O	-3.426276	3.426180	-8.067951
O	-1.214594	3.426180	-5.857360
O	-1.214594	1.215590	-8.067951
Pa	-4.640869	0.000000	-4.641770
Pa	-2.320435	-2.320885	-6.962656
Pd	-5.801087	-1.160443	-8.123098
Pd	-1.160217	1.160443	-5.802213
Pd	1.160217	-1.160443	-5.802213
Pd	-3.480652	1.160443	-8.123098
O	3.535029	3.536475	-5.747066
O	-1.105841	5.747066	-8.178245
O	1.105841	3.536475	-8.178245
O	1.214594	5.857360	-5.857360
O	5.746710	5.747066	-5.747066
O	1.214594	8.067951	-8.067951
O	3.426276	8.067951	-5.857360
O	3.426276	5.857360	-8.067951
Pa	0.000000	4.641770	-4.641770
Pa	2.320435	2.320885	-6.962656
Pd	-1.160217	3.481328	-8.123098
Pd	3.480652	5.802213	-5.802213
Pd	5.801087	3.481328	-5.802213
Pd	1.160217	5.802213	-8.123098
O	8.175898	-5.747066	-1.105295
O	3.535029	-3.536475	-3.536475
O	5.746710	-5.747066	-3.536475
O	5.855463	-3.426180	-1.215590
O	10.387580	-3.536475	-1.105295
O	5.855463	-1.215590	-3.426180
O	8.067145	-1.215590	-1.215590
O	8.067145	-3.426180	-3.426180
Pa	4.640869	-4.641770	0.000000
Pa	6.961304	-6.962656	-2.320885
Pd	3.480652	-5.802213	-3.481328
Pd	8.121521	-3.481328	-1.160443
Pd	10.441956	-5.802213	-1.160443
Pd	5.801087	-3.481328	-3.481328
O	12.816767	-1.105295	-1.105295
O	8.175898	1.105295	-3.536475
O	10.387580	-1.105295	-3.536475
O	10.496333	1.215590	-1.215590
O	15.028449	1.105295	-1.105295
O	10.496333	3.426180	-3.426180
O	12.708014	3.426180	-1.215590
O	12.708014	1.215590	-3.426180
Pa	9.281739	0.000000	0.000000
Pa	11.602173	-2.320885	-2.320885
Pd	8.121521	-1.160443	-3.481328
Pd	12.762391	1.160443	-1.160443
Pd	15.082826	-1.160443	-1.160443
Pd	10.441956	1.160443	-3.481328
O	3.535029	-5.747066	-5.747066
O	-1.105841	-3.536475	-8.178245
O	1.105841	-5.747066	-8.178245
O	1.214594	-3.426180	-5.857360
O	5.746710	-3.536475	-5.747066
O	1.214594	-1.215590	-8.067951
O	3.426276	-1.215590	-5.857360
O	3.426276	-3.426180	-8.067951
Pa	0.000000	-4.641770	-4.641770
Pa	2.320435	-6.962656	-6.962656
Pd	-1.160217	-5.802213	-8.123098
Pd	3.480652	-3.481328	-5.802213
Pd	5.801087	-5.802213	-5.802213
Pd	1.160217	-3.481328	-8.123098
O	8.175898	-1.105295	-5.747066
O	3.535029	1.105295	-8.178245
O	5.746710	-1.105295	-8.178245
O	5.855463	1.215590	-5.857360
O	10.387580	1.105295	-5.747066
O	5.855463	3.426180	-8.067951
O	8.067145	3.426180	-5.857360
O	8.067145	1.215590	-8.067951
Pa	4.640869	0.000000	-4.641770
Pa	6.961304	-2.320885	-6.962656
Pd	3.480652	-1.160443	-8.123098
Pd	8.121521	1.160443	-5.802213
Pd	10.441956	-1.160443	-5.802213
Pd	5.801087	1.160443	-8.123098
