112

La	0.000000	0.000000	0.000000
La	2.250787	-2.251416	-2.251416
Mg	-1.125389	-1.125703	-3.377120
Mg	3.376176	1.125703	-1.125703
Mg	1.125389	1.125703	-3.377120
Mg	5.626964	-1.125703	-1.125703
O	3.530674	-0.970529	-0.970529
O	-0.970891	0.970529	-3.532293
O	0.970891	-0.970529	-3.532293
O	1.279897	1.280877	-1.280877
O	5.472456	0.970529	-0.970529
O	1.279897	3.221946	-3.221946
O	3.221678	1.280877	-3.221946
O	3.221678	3.221946	-1.280877
La	4.501570	4.502827	0.000000
La	6.752357	2.251410	-2.251416
Mg	3.376181	3.377123	-3.377120
Mg	7.877746	5.628530	-1.125703
Mg	5.626958	5.628530	-3.377120
Mg	10.128533	3.377123	-1.125703
O	8.032244	3.532297	-0.970529
O	3.530679	5.473356	-3.532293
O	5.472460	3.532297	-3.532293
O	5.781466	5.783704	-1.280877
O	9.974025	5.473356	-0.970529
O	5.781466	7.724772	-3.221946
O	7.723248	5.783704	-3.221946
O	7.723248	7.724772	-1.280877
La	-4.501570	0.000000	-4.502827
La	-2.250782	-2.251416	-6.754243
Mg	-5.626958	-1.125703	-7.879946
Mg	-1.125393	1.125703	-5.628530
Mg	-3.376181	1.125703	-7.879946
Mg	1.125394	-1.125703	-5.628530
O	-0.970896	-0.970529	-5.473356
O	-5.472460	0.970529	-8.035120
O	-3.530679	-0.970529	-8.035120
O	-3.221673	1.280877	-5.783704
O	0.970886	0.970529	-5.473356
O	-3.221673	3.221946	-7.724772
O	-1.279891	1.280877	-7.724772
O	-1.279891	3.221946	-5.783704
La	0.000000	4.502827	-4.502827
La	2.250787	2.251410	-6.754243
Mg	-1.125389	3.377123	-7.879946
Mg	3.376176	5.628530	-5.628530
Mg	1.125389	5.628530	-7.879946
Mg	5.626964	3.377123	-5.628530
O	3.530674	3.532297	-5.473356
O	-0.970891	5.473356	-8.035120
O	0.970891	3.532297	-8.035120
O	1.279897	5.783704	-5.783704
O	5.472456	5.473356	-5.473356
O	1.279897	7.724772	-7.724772
O	3.221678	5.783704	-7.724772
O	3.221678	7.724772	-5.783704
La	4.501570	-4.502827	0.000000
La	6.752357	-6.754243	-2.251416
Mg	3.376181	-5.628530	-3.377120
Mg	7.877746	-3.377123	-1.125703
Mg	5.626958	-3.377123	-3.377120
Mg	10.128533	-5.628530	-1.125703
O	8.032244	-5.473356	-0.970529
O	3.530679	-3.532297	-3.532293
O	5.472460	-5.473356	-3.532293
O	5.781466	-3.221950	-1.280877
O	9.974025	-3.532297	-0.970529
O	5.781466	-1.280881	-3.221946
O	7.723248	-3.221950	-3.221946
O	7.723248	-1.280881	-1.280877
La	9.003139	0.000000	0.000000
La	11.253927	-2.251416	-2.251416
Mg	7.877750	-1.125703	-3.377120
Mg	12.379315	1.125703	-1.125703
Mg	10.128528	1.125703	-3.377120
Mg	14.630103	-1.125703	-1.125703
O	12.533813	-0.970529	-0.970529
O	8.032248	0.970529	-3.532293
O	9.974030	-0.970529	-3.532293
O	10.283036	1.280877	-1.280877
O	14.475595	0.970529	-0.970529
O	10.283036	3.221946	-3.221946
O	12.224817	1.280877	-3.221946
O	12.224817	3.221946	-1.280877
La	0.000000	-4.502827	-4.502827
La	2.250787	-6.754243	-6.754243
Mg	-1.125389	-5.628530	-7.879946
Mg	3.376176	-3.377123	-5.628530
Mg	1.125389	-3.377123	-7.879946
Mg	5.626964	-5.628530	-5.628530
O	3.530674	-5.473356	-5.473356
O	-0.970891	-3.532297	-8.035120
O	0.970891	-5.473356	-8.035120
O	1.279897	-3.221950	-5.783704
O	5.472456	-3.532297	-5.473356
O	1.279897	-1.280881	-7.724772
O	3.221678	-3.221950	-7.724772
O	3.221678	-1.280881	-5.783704
La	4.501570	0.000000	-4.502827
La	6.752357	-2.251416	-6.754243
Mg	3.376181	-1.125703	-7.879946
Mg	7.877746	1.125703	-5.628530
Mg	5.626958	1.125703	-7.879946
Mg	10.128533	-1.125703	-5.628530
O	8.032244	-0.970529	-5.473356
O	3.530679	0.970529	-8.035120
O	5.472460	-0.970529	-8.035120
O	5.781466	1.280877	-5.783704
O	9.974025	0.970529	-5.473356
O	5.781466	3.221946	-7.724772
O	7.723248	1.280877	-7.724772
O	7.723248	3.221946	-5.783704
