48

O	0.855520	-0.855520	-0.855520
O	2.684544	-2.684544	-0.855520
O	0.855520	-2.684544	-2.684544
O	2.684544	-0.855520	-2.684544
S	0.000000	0.000000	0.000000
Sr	3.540064	0.000000	0.000000
O	4.395584	2.684544	-0.855520
O	6.224608	0.855520	-0.855520
O	4.395584	0.855520	-2.684544
O	6.224608	2.684544	-2.684544
S	3.540064	3.540064	0.000000
Sr	7.080128	3.540064	0.000000
O	-2.684544	-0.855520	-4.395584
O	-0.855520	-2.684544	-4.395584
O	-2.684544	-2.684544	-6.224608
O	-0.855520	-0.855520	-6.224608
S	-3.540064	0.000000	-3.540064
Sr	0.000000	0.000000	-3.540064
O	0.855520	2.684544	-4.395584
O	2.684544	0.855520	-4.395584
O	0.855520	0.855520	-6.224608
O	2.684544	2.684544	-6.224608
S	0.000000	3.540064	-3.540064
Sr	3.540064	3.540064	-3.540064
O	4.395584	-4.395584	-0.855520
O	6.224608	-6.224608	-0.855520
O	4.395584	-6.224608	-2.684544
O	6.224608	-4.395584	-2.684544
S	3.540064	-3.540064	0.000000
Sr	7.080128	-3.540064	0.000000
O	7.935649	-0.855520	-0.855520
O	9.764673	-2.684544	-0.855520
O	7.935649	-2.684544	-2.684544
O	9.764673	-0.855520	-2.684544
S	7.080128	0.000000	0.000000
Sr	10.620193	0.000000	0.000000
O	0.855520	-4.395584	-4.395584
O	2.684544	-6.224608	-4.395584
O	0.855520	-6.224608	-6.224608
O	2.684544	-4.395584	-6.224608
S	0.000000	-3.540064	-3.540064
Sr	3.540064	-3.540064	-3.540064
O	4.395584	-0.855520	-4.395584
O	6.224608	-2.684544	-4.395584
O	4.395584	-2.684544	-6.224608
O	6.224608	-0.855520	-6.224608
S	3.540064	0.000000	-3.540064
Sr	7.080128	0.000000	-3.540064
