96

K	1.626690	1.626690	1.626690
K	4.795976	1.626690	1.626690
K	1.626690	4.795976	1.626690
K	4.795976	4.795976	1.626690
K	1.626690	1.626690	4.795976
K	4.795976	1.626690	4.795976
K	1.626690	4.795976	4.795976
K	4.795976	4.795976	4.795976
N	0.000000	0.000000	0.000000
O	3.211333	3.211333	0.000000
O	3.211333	0.000000	3.211333
O	0.000000	3.211333	3.211333
K	1.626690	1.626690	8.049356
K	4.795976	1.626690	8.049356
K	1.626690	4.795976	8.049356
K	4.795976	4.795976	8.049356
K	1.626690	1.626690	11.218642
K	4.795976	1.626690	11.218642
K	1.626690	4.795976	11.218642
K	4.795976	4.795976	11.218642
N	0.000000	0.000000	6.422666
O	3.211333	3.211333	6.422666
O	3.211333	0.000000	9.633999
O	0.000000	3.211333	9.633999
K	1.626690	8.049356	1.626690
K	4.795976	8.049356	1.626690
K	1.626690	11.218642	1.626690
K	4.795976	11.218642	1.626690
K	1.626690	8.049356	4.795976
K	4.795976	8.049356	4.795976
K	1.626690	11.218642	4.795976
K	4.795976	11.218642	4.795976
N	0.000000	6.422666	0.000000
O	3.211333	9.633999	0.000000
O	3.211333	6.422666	3.211333
O	0.000000	9.633999	3.211333
K	1.626690	8.049356	8.049356
K	4.795976	8.049356	8.049356
K	1.626690	11.218642	8.049356
K	4.795976	11.218642	8.049356
K	1.626690	8.049356	11.218642
K	4.795976	8.049356	11.218642
K	1.626690	11.218642	11.218642
K	4.795976	11.218642	11.218642
N	0.000000	6.422666	6.422666
O	3.211333	9.633999	6.422666
O	3.211333	6.422666	9.633999
O	0.000000	9.633999	9.633999
K	8.049356	1.626690	1.626690
K	11.218642	1.626690	1.626690
K	8.049356	4.795976	1.626690
K	11.218642	4.795976	1.626690
K	8.049356	1.626690	4.795976
K	11.218642	1.626690	4.795976
K	8.049356	4.795976	4.795976
K	11.218642	4.795976	4.795976
N	6.422666	0.000000	0.000000
O	9.633999	3.211333	0.000000
O	9.633999	0.000000	3.211333
O	6.422666	3.211333	3.211333
K	8.049356	1.626690	8.049356
K	11.218642	1.626690	8.049356
K	8.049356	4.795976	8.049356
K	11.218642	4.795976	8.049356
K	8.049356	1.626690	11.218642
K	11.218642	1.626690	11.218642
K	8.049356	4.795976	11.218642
K	11.218642	4.795976	11.218642
N	6.422666	0.000000	6.422666
O	9.633999	3.211333	6.422666
O	9.633999	0.000000	9.633999
O	6.422666	3.211333	9.633999
K	8.049356	8.049356	1.626690
K	11.218642	8.049356	1.626690
K	8.049356	11.218642	1.626690
K	11.218642	11.218642	1.626690
K	8.049356	8.049356	4.795976
K	11.218642	8.049356	4.795976
K	8.049356	11.218642	4.795976
K	11.218642	11.218642	4.795976
N	6.422666	6.422666	0.000000
O	9.633999	9.633999	0.000000
O	9.633999	6.422666	3.211333
O	6.422666	9.633999	3.211333
K	8.049356	8.049356	8.049356
K	11.218642	8.049356	8.049356
K	8.049356	11.218642	8.049356
K	11.218642	11.218642	8.049356
K	8.049356	8.049356	11.218642
K	11.218642	8.049356	11.218642
K	8.049356	11.218642	11.218642
K	11.218642	11.218642	11.218642
N	6.422666	6.422666	6.422666
O	9.633999	9.633999	6.422666
O	9.633999	6.422666	9.633999
O	6.422666	9.633999	9.633999
