40

Mg	1.870315	1.870315	1.870315
Mn	0.000000	0.000000	0.000000
O	1.870315	0.000000	0.000000
O	0.000000	1.870315	0.000000
O	0.000000	0.000000	1.870315
Mg	1.870315	1.870315	5.610945
Mn	0.000000	0.000000	3.740630
O	1.870315	0.000000	3.740630
O	0.000000	1.870315	3.740630
O	0.000000	0.000000	5.610945
Mg	1.870315	5.610945	1.870315
Mn	0.000000	3.740630	0.000000
O	1.870315	3.740630	0.000000
O	0.000000	5.610945	0.000000
O	0.000000	3.740630	1.870315
Mg	1.870315	5.610945	5.610945
Mn	0.000000	3.740630	3.740630
O	1.870315	3.740630	3.740630
O	0.000000	5.610945	3.740630
O	0.000000	3.740630	5.610945
Mg	5.610945	1.870315	1.870315
Mn	3.740630	0.000000	0.000000
O	5.610945	0.000000	0.000000
O	3.740630	1.870315	0.000000
O	3.740630	0.000000	1.870315
Mg	5.610945	1.870315	5.610945
Mn	3.740630	0.000000	3.740630
O	5.610945	0.000000	3.740630
O	3.740630	1.870315	3.740630
O	3.740630	0.000000	5.610945
Mg	5.610945	5.610945	1.870315
Mn	3.740630	3.740630	0.000000
O	5.610945	3.740630	0.000000
O	3.740630	5.610945	0.000000
O	3.740630	3.740630	1.870315
Mg	5.610945	5.610945	5.610945
Mn	3.740630	3.740630	3.740630
O	5.610945	3.740630	3.740630
O	3.740630	5.610945	3.740630
O	3.740630	3.740630	5.610945
