40

K	2.280844	2.280844	2.280844
O	0.000000	2.280844	2.280844
O	2.280844	0.000000	2.280844
O	2.280844	2.280844	0.000000
Pt	0.000000	0.000000	0.000000
K	2.280844	2.280844	6.842533
O	0.000000	2.280844	6.842533
O	2.280844	0.000000	6.842533
O	2.280844	2.280844	4.561689
Pt	0.000000	0.000000	4.561689
K	2.280844	6.842533	2.280844
O	0.000000	6.842533	2.280844
O	2.280844	4.561689	2.280844
O	2.280844	6.842533	0.000000
Pt	0.000000	4.561689	0.000000
K	2.280844	6.842533	6.842533
O	0.000000	6.842533	6.842533
O	2.280844	4.561689	6.842533
O	2.280844	6.842533	4.561689
Pt	0.000000	4.561689	4.561689
K	6.842533	2.280844	2.280844
O	4.561689	2.280844	2.280844
O	6.842533	0.000000	2.280844
O	6.842533	2.280844	0.000000
Pt	4.561689	0.000000	0.000000
K	6.842533	2.280844	6.842533
O	4.561689	2.280844	6.842533
O	6.842533	0.000000	6.842533
O	6.842533	2.280844	4.561689
Pt	4.561689	0.000000	4.561689
K	6.842533	6.842533	2.280844
O	4.561689	6.842533	2.280844
O	6.842533	4.561689	2.280844
O	6.842533	6.842533	0.000000
Pt	4.561689	4.561689	0.000000
K	6.842533	6.842533	6.842533
O	4.561689	6.842533	6.842533
O	6.842533	4.561689	6.842533
O	6.842533	6.842533	4.561689
Pt	4.561689	4.561689	4.561689
