40

O	0.000000	2.012709	2.012709
O	2.012709	0.000000	2.012709
O	2.012709	2.012709	0.000000
S	0.000000	0.000000	0.000000
Sb	2.012709	2.012709	2.012709
O	0.000000	2.012709	6.038128
O	2.012709	0.000000	6.038128
O	2.012709	2.012709	4.025419
S	0.000000	0.000000	4.025419
Sb	2.012709	2.012709	6.038128
O	0.000000	6.038128	2.012709
O	2.012709	4.025419	2.012709
O	2.012709	6.038128	0.000000
S	0.000000	4.025419	0.000000
Sb	2.012709	6.038128	2.012709
O	0.000000	6.038128	6.038128
O	2.012709	4.025419	6.038128
O	2.012709	6.038128	4.025419
S	0.000000	4.025419	4.025419
Sb	2.012709	6.038128	6.038128
O	4.025419	2.012709	2.012709
O	6.038128	0.000000	2.012709
O	6.038128	2.012709	0.000000
S	4.025419	0.000000	0.000000
Sb	6.038128	2.012709	2.012709
O	4.025419	2.012709	6.038128
O	6.038128	0.000000	6.038128
O	6.038128	2.012709	4.025419
S	4.025419	0.000000	4.025419
Sb	6.038128	2.012709	6.038128
O	4.025419	6.038128	2.012709
O	6.038128	4.025419	2.012709
O	6.038128	6.038128	0.000000
S	4.025419	4.025419	0.000000
Sb	6.038128	6.038128	2.012709
O	4.025419	6.038128	6.038128
O	6.038128	4.025419	6.038128
O	6.038128	6.038128	4.025419
S	4.025419	4.025419	4.025419
Sb	6.038128	6.038128	6.038128
