40

Ba	2.470493	2.470493	2.470493
Li	0.000000	0.000000	0.000000
O	0.000000	2.470493	2.470493
O	2.470493	0.000000	2.470493
O	2.470493	2.470493	0.000000
Ba	2.470493	2.470493	7.411480
Li	0.000000	0.000000	4.940987
O	0.000000	2.470493	7.411480
O	2.470493	0.000000	7.411480
O	2.470493	2.470493	4.940987
Ba	2.470493	7.411480	2.470493
Li	0.000000	4.940987	0.000000
O	0.000000	7.411480	2.470493
O	2.470493	4.940987	2.470493
O	2.470493	7.411480	0.000000
Ba	2.470493	7.411480	7.411480
Li	0.000000	4.940987	4.940987
O	0.000000	7.411480	7.411480
O	2.470493	4.940987	7.411480
O	2.470493	7.411480	4.940987
Ba	7.411480	2.470493	2.470493
Li	4.940987	0.000000	0.000000
O	4.940987	2.470493	2.470493
O	7.411480	0.000000	2.470493
O	7.411480	2.470493	0.000000
Ba	7.411480	2.470493	7.411480
Li	4.940987	0.000000	4.940987
O	4.940987	2.470493	7.411480
O	7.411480	0.000000	7.411480
O	7.411480	2.470493	4.940987
Ba	7.411480	7.411480	2.470493
Li	4.940987	4.940987	0.000000
O	4.940987	7.411480	2.470493
O	7.411480	4.940987	2.470493
O	7.411480	7.411480	0.000000
Ba	7.411480	7.411480	7.411480
Li	4.940987	4.940987	4.940987
O	4.940987	7.411480	7.411480
O	7.411480	4.940987	7.411480
O	7.411480	7.411480	4.940987
