40

Ba	0.000000	0.000000	0.000000
Li	1.982701	1.982701	1.982701
O	1.982701	1.982701	0.000000
O	1.982701	0.000000	1.982701
O	0.000000	1.982701	1.982701
Ba	0.000000	0.000000	3.965403
Li	1.982701	1.982701	5.948104
O	1.982701	1.982701	3.965403
O	1.982701	0.000000	5.948104
O	0.000000	1.982701	5.948104
Ba	0.000000	3.965403	0.000000
Li	1.982701	5.948104	1.982701
O	1.982701	5.948104	0.000000
O	1.982701	3.965403	1.982701
O	0.000000	5.948104	1.982701
Ba	0.000000	3.965403	3.965403
Li	1.982701	5.948104	5.948104
O	1.982701	5.948104	3.965403
O	1.982701	3.965403	5.948104
O	0.000000	5.948104	5.948104
Ba	3.965403	0.000000	0.000000
Li	5.948104	1.982701	1.982701
O	5.948104	1.982701	0.000000
O	5.948104	0.000000	1.982701
O	3.965403	1.982701	1.982701
Ba	3.965403	0.000000	3.965403
Li	5.948104	1.982701	5.948104
O	5.948104	1.982701	3.965403
O	5.948104	0.000000	5.948104
O	3.965403	1.982701	5.948104
Ba	3.965403	3.965403	0.000000
Li	5.948104	5.948104	1.982701
O	5.948104	5.948104	0.000000
O	5.948104	3.965403	1.982701
O	3.965403	5.948104	1.982701
Ba	3.965403	3.965403	3.965403
Li	5.948104	5.948104	5.948104
O	5.948104	5.948104	3.965403
O	5.948104	3.965403	5.948104
O	3.965403	5.948104	5.948104
