40

Ce	2.283052	2.283052	2.283052
O	2.283052	2.283052	0.000000
O	2.283052	0.000000	2.283052
O	0.000000	2.283052	2.283052
Y	0.000000	0.000000	0.000000
Ce	2.283052	2.283052	6.849155
O	2.283052	2.283052	4.566103
O	2.283052	0.000000	6.849155
O	0.000000	2.283052	6.849155
Y	0.000000	0.000000	4.566103
Ce	2.283052	6.849155	2.283052
O	2.283052	6.849155	0.000000
O	2.283052	4.566103	2.283052
O	0.000000	6.849155	2.283052
Y	0.000000	4.566103	0.000000
Ce	2.283052	6.849155	6.849155
O	2.283052	6.849155	4.566103
O	2.283052	4.566103	6.849155
O	0.000000	6.849155	6.849155
Y	0.000000	4.566103	4.566103
Ce	6.849155	2.283052	2.283052
O	6.849155	2.283052	0.000000
O	6.849155	0.000000	2.283052
O	4.566103	2.283052	2.283052
Y	4.566103	0.000000	0.000000
Ce	6.849155	2.283052	6.849155
O	6.849155	2.283052	4.566103
O	6.849155	0.000000	6.849155
O	4.566103	2.283052	6.849155
Y	4.566103	0.000000	4.566103
Ce	6.849155	6.849155	2.283052
O	6.849155	6.849155	0.000000
O	6.849155	4.566103	2.283052
O	4.566103	6.849155	2.283052
Y	4.566103	4.566103	0.000000
Ce	6.849155	6.849155	6.849155
O	6.849155	6.849155	4.566103
O	6.849155	4.566103	6.849155
O	4.566103	6.849155	6.849155
Y	4.566103	4.566103	4.566103
