40

Cl	0.000000	0.000000	0.000000
Cr	1.883449	1.883449	1.883449
O	0.000000	1.883449	1.883449
O	1.883449	0.000000	1.883449
O	1.883449	1.883449	0.000000
Cl	0.000000	0.000000	3.766897
Cr	1.883449	1.883449	5.650346
O	0.000000	1.883449	5.650346
O	1.883449	0.000000	5.650346
O	1.883449	1.883449	3.766897
Cl	0.000000	3.766897	0.000000
Cr	1.883449	5.650346	1.883449
O	0.000000	5.650346	1.883449
O	1.883449	3.766897	1.883449
O	1.883449	5.650346	0.000000
Cl	0.000000	3.766897	3.766897
Cr	1.883449	5.650346	5.650346
O	0.000000	5.650346	5.650346
O	1.883449	3.766897	5.650346
O	1.883449	5.650346	3.766897
Cl	3.766897	0.000000	0.000000
Cr	5.650346	1.883449	1.883449
O	3.766897	1.883449	1.883449
O	5.650346	0.000000	1.883449
O	5.650346	1.883449	0.000000
Cl	3.766897	0.000000	3.766897
Cr	5.650346	1.883449	5.650346
O	3.766897	1.883449	5.650346
O	5.650346	0.000000	5.650346
O	5.650346	1.883449	3.766897
Cl	3.766897	3.766897	0.000000
Cr	5.650346	5.650346	1.883449
O	3.766897	5.650346	1.883449
O	5.650346	3.766897	1.883449
O	5.650346	5.650346	0.000000
Cl	3.766897	3.766897	3.766897
Cr	5.650346	5.650346	5.650346
O	3.766897	5.650346	5.650346
O	5.650346	3.766897	5.650346
O	5.650346	5.650346	3.766897
