40

Au	0.000000	0.000000	0.000000
Cd	2.124895	2.124895	2.124895
O	0.000000	2.124895	2.124895
O	2.124895	0.000000	2.124895
O	2.124895	2.124895	0.000000
Au	0.000000	0.000000	4.249789
Cd	2.124895	2.124895	6.374684
O	0.000000	2.124895	6.374684
O	2.124895	0.000000	6.374684
O	2.124895	2.124895	4.249789
Au	0.000000	4.249789	0.000000
Cd	2.124895	6.374684	2.124895
O	0.000000	6.374684	2.124895
O	2.124895	4.249789	2.124895
O	2.124895	6.374684	0.000000
Au	0.000000	4.249789	4.249789
Cd	2.124895	6.374684	6.374684
O	0.000000	6.374684	6.374684
O	2.124895	4.249789	6.374684
O	2.124895	6.374684	4.249789
Au	4.249789	0.000000	0.000000
Cd	6.374684	2.124895	2.124895
O	4.249789	2.124895	2.124895
O	6.374684	0.000000	2.124895
O	6.374684	2.124895	0.000000
Au	4.249789	0.000000	4.249789
Cd	6.374684	2.124895	6.374684
O	4.249789	2.124895	6.374684
O	6.374684	0.000000	6.374684
O	6.374684	2.124895	4.249789
Au	4.249789	4.249789	0.000000
Cd	6.374684	6.374684	2.124895
O	4.249789	6.374684	2.124895
O	6.374684	4.249789	2.124895
O	6.374684	6.374684	0.000000
Au	4.249789	4.249789	4.249789
Cd	6.374684	6.374684	6.374684
O	4.249789	6.374684	6.374684
O	6.374684	4.249789	6.374684
O	6.374684	6.374684	4.249789
