112

Ge	0.000000	0.000000	0.000000
Ge	2.468041	-2.469160	-2.469160
Nd	-1.234025	-1.234575	-3.703735
Nd	3.702066	1.234575	-1.234575
Nd	1.234025	1.234575	-3.703735
Nd	6.170107	-1.234575	-1.234575
O	-1.149316	1.149781	-3.788539
O	3.786776	-1.149781	-1.149781
O	1.149316	-1.149781	-3.788539
O	1.318735	1.319379	-1.319379
O	6.085407	1.149781	-1.149781
O	1.318735	3.618942	-3.618942
O	3.617356	3.618942	-1.319379
O	3.617356	1.319379	-3.618942
Ge	4.936089	4.938320	0.000000
Ge	7.404130	2.469160	-2.469160
Nd	3.702063	3.703745	-3.703735
Nd	8.638155	6.172895	-1.234575
Nd	6.170114	6.172895	-3.703735
Nd	11.106196	3.703745	-1.234575
O	3.786773	6.088101	-3.788539
O	8.722865	3.788539	-1.149781
O	6.085404	3.788539	-3.788539
O	6.254824	6.257699	-1.319379
O	11.021496	6.088101	-1.149781
O	6.254824	8.557261	-3.618942
O	8.553445	8.557261	-1.319379
O	8.553445	6.257699	-3.618942
Ge	-4.936089	0.000000	-4.938320
Ge	-2.468048	-2.469160	-7.407480
Nd	-6.170114	-1.234575	-8.642055
Nd	-1.234023	1.234575	-6.172895
Nd	-3.702063	1.234575	-8.642055
Nd	1.234018	-1.234575	-6.172895
O	-6.085404	1.149781	-8.726859
O	-1.149313	-1.149781	-6.088101
O	-3.786773	-1.149781	-8.726859
O	-3.617354	1.319379	-6.257699
O	1.149318	1.149781	-6.088101
O	-3.617354	3.618942	-8.557261
O	-1.318732	3.618942	-6.257699
O	-1.318732	1.319379	-8.557261
Ge	0.000000	4.938320	-4.938320
Ge	2.468041	2.469160	-7.407480
Nd	-1.234025	3.703745	-8.642055
Nd	3.702066	6.172895	-6.172895
Nd	1.234025	6.172895	-8.642055
Nd	6.170107	3.703745	-6.172895
O	-1.149316	6.088101	-8.726859
O	3.786776	3.788539	-6.088101
O	1.149316	3.788539	-8.726859
O	1.318735	6.257699	-6.257699
O	6.085407	6.088101	-6.088101
O	1.318735	8.557261	-8.557261
O	3.617356	8.557261	-6.257699
O	3.617356	6.257699	-8.557261
Ge	4.936089	-4.938320	0.000000
Ge	7.404130	-7.407480	-2.469160
Nd	3.702063	-6.172895	-3.703735
Nd	8.638155	-3.703745	-1.234575
Nd	6.170114	-3.703745	-3.703735
Nd	11.106196	-6.172895	-1.234575
O	3.786773	-3.788539	-3.788539
O	8.722865	-6.088101	-1.149781
O	6.085404	-6.088101	-3.788539
O	6.254824	-3.618941	-1.319379
O	11.021496	-3.788539	-1.149781
O	6.254824	-1.319378	-3.618942
O	8.553445	-1.319378	-1.319379
O	8.553445	-3.618941	-3.618942
Ge	9.872178	0.000000	0.000000
Ge	12.340219	-2.469160	-2.469160
Nd	8.638152	-1.234575	-3.703735
Nd	13.574244	1.234575	-1.234575
Nd	11.106203	1.234575	-3.703735
Nd	16.042285	-1.234575	-1.234575
O	8.722862	1.149781	-3.788539
O	13.658954	-1.149781	-1.149781
O	11.021493	-1.149781	-3.788539
O	11.190913	1.319379	-1.319379
O	15.957585	1.149781	-1.149781
O	11.190913	3.618942	-3.618942
O	13.489534	3.618942	-1.319379
O	13.489534	1.319379	-3.618942
Ge	0.000000	-4.938320	-4.938320
Ge	2.468041	-7.407480	-7.407480
Nd	-1.234025	-6.172895	-8.642055
Nd	3.702066	-3.703745	-6.172895
Nd	1.234025	-3.703745	-8.642055
Nd	6.170107	-6.172895	-6.172895
O	-1.149316	-3.788539	-8.726859
O	3.786776	-6.088101	-6.088101
O	1.149316	-6.088101	-8.726859
O	1.318735	-3.618941	-6.257699
O	6.085407	-3.788539	-6.088101
O	1.318735	-1.319378	-8.557261
O	3.617356	-1.319378	-6.257699
O	3.617356	-3.618941	-8.557261
Ge	4.936089	0.000000	-4.938320
Ge	7.404130	-2.469160	-7.407480
Nd	3.702063	-1.234575	-8.642055
Nd	8.638155	1.234575	-6.172895
Nd	6.170114	1.234575	-8.642055
Nd	11.106196	-1.234575	-6.172895
O	3.786773	1.149781	-8.726859
O	8.722865	-1.149781	-6.088101
O	6.085404	-1.149781	-8.726859
O	6.254824	1.319379	-6.257699
O	11.021496	1.149781	-6.088101
O	6.254824	3.618942	-8.557261
O	8.553445	3.618942	-6.257699
O	8.553445	1.319379	-8.557261
