40

Ga	1.881357	1.881357	1.881357
Ir	0.000000	0.000000	0.000000
O	1.881357	1.881357	0.000000
O	1.881357	0.000000	1.881357
O	0.000000	1.881357	1.881357
Ga	1.881357	1.881357	5.644076
Ir	0.000000	0.000000	3.762720
O	1.881357	1.881357	3.762720
O	1.881357	0.000000	5.644076
O	0.000000	1.881357	5.644076
Ga	1.881357	5.644076	1.881357
Ir	0.000000	3.762720	0.000000
O	1.881357	5.644076	0.000000
O	1.881357	3.762720	1.881357
O	0.000000	5.644076	1.881357
Ga	1.881357	5.644076	5.644076
Ir	0.000000	3.762720	3.762720
O	1.881357	5.644076	3.762720
O	1.881357	3.762720	5.644076
O	0.000000	5.644076	5.644076
Ga	5.644076	1.881357	1.881357
Ir	3.762720	0.000000	0.000000
O	5.644076	1.881357	0.000000
O	5.644076	0.000000	1.881357
O	3.762720	1.881357	1.881357
Ga	5.644076	1.881357	5.644076
Ir	3.762720	0.000000	3.762720
O	5.644076	1.881357	3.762720
O	5.644076	0.000000	5.644076
O	3.762720	1.881357	5.644076
Ga	5.644076	5.644076	1.881357
Ir	3.762720	3.762720	0.000000
O	5.644076	5.644076	0.000000
O	5.644076	3.762720	1.881357
O	3.762720	5.644076	1.881357
Ga	5.644076	5.644076	5.644076
Ir	3.762720	3.762720	3.762720
O	5.644076	5.644076	3.762720
O	5.644076	3.762720	5.644076
O	3.762720	5.644076	5.644076
