40

Fe	0.000000	0.000000	0.000000
O	1.944690	1.944690	0.000000
O	0.000000	1.944690	1.944690
O	1.944690	0.000000	1.944690
W	1.944690	1.944690	1.944690
Fe	0.000000	0.000000	3.889388
O	1.944690	1.944690	3.889388
O	0.000000	1.944690	5.834078
O	1.944690	0.000000	5.834078
W	1.944690	1.944690	5.834078
Fe	0.000000	3.889388	0.000000
O	1.944690	5.834078	0.000000
O	0.000000	5.834078	1.944690
O	1.944690	3.889388	1.944690
W	1.944690	5.834078	1.944690
Fe	0.000000	3.889388	3.889388
O	1.944690	5.834078	3.889388
O	0.000000	5.834078	5.834078
O	1.944690	3.889388	5.834078
W	1.944690	5.834078	5.834078
Fe	3.889388	0.000000	0.000000
O	5.834078	1.944690	0.000000
O	3.889388	1.944690	1.944690
O	5.834078	0.000000	1.944690
W	5.834078	1.944690	1.944690
Fe	3.889388	0.000000	3.889388
O	5.834078	1.944690	3.889388
O	3.889388	1.944690	5.834078
O	5.834078	0.000000	5.834078
W	5.834078	1.944690	5.834078
Fe	3.889388	3.889388	0.000000
O	5.834078	5.834078	0.000000
O	3.889388	5.834078	1.944690
O	5.834078	3.889388	1.944690
W	5.834078	5.834078	1.944690
Fe	3.889388	3.889388	3.889388
O	5.834078	5.834078	3.889388
O	3.889388	5.834078	5.834078
O	5.834078	3.889388	5.834078
W	5.834078	5.834078	5.834078
