40

Au	0.000000	0.000000	0.000000
Br	2.002029	2.002029	2.002029
O	0.000000	2.002029	2.002029
O	2.002029	0.000000	2.002029
O	2.002029	2.002029	0.000000
Au	0.000000	0.000000	4.004059
Br	2.002029	2.002029	6.006088
O	0.000000	2.002029	6.006088
O	2.002029	0.000000	6.006088
O	2.002029	2.002029	4.004059
Au	0.000000	4.004059	0.000000
Br	2.002029	6.006088	2.002029
O	0.000000	6.006088	2.002029
O	2.002029	4.004059	2.002029
O	2.002029	6.006088	0.000000
Au	0.000000	4.004059	4.004059
Br	2.002029	6.006088	6.006088
O	0.000000	6.006088	6.006088
O	2.002029	4.004059	6.006088
O	2.002029	6.006088	4.004059
Au	4.004059	0.000000	0.000000
Br	6.006088	2.002029	2.002029
O	4.004059	2.002029	2.002029
O	6.006088	0.000000	2.002029
O	6.006088	2.002029	0.000000
Au	4.004059	0.000000	4.004059
Br	6.006088	2.002029	6.006088
O	4.004059	2.002029	6.006088
O	6.006088	0.000000	6.006088
O	6.006088	2.002029	4.004059
Au	4.004059	4.004059	0.000000
Br	6.006088	6.006088	2.002029
O	4.004059	6.006088	2.002029
O	6.006088	4.004059	2.002029
O	6.006088	6.006088	0.000000
Au	4.004059	4.004059	4.004059
Br	6.006088	6.006088	6.006088
O	4.004059	6.006088	6.006088
O	6.006088	4.004059	6.006088
O	6.006088	6.006088	4.004059
