40

Au	2.035331	2.035331	2.035331
O	0.000000	2.035331	2.035331
O	2.035331	0.000000	2.035331
O	2.035331	2.035331	0.000000
W	0.000000	0.000000	0.000000
Au	2.035331	2.035331	6.105992
O	0.000000	2.035331	6.105992
O	2.035331	0.000000	6.105992
O	2.035331	2.035331	4.070661
W	0.000000	0.000000	4.070661
Au	2.035331	6.105992	2.035331
O	0.000000	6.105992	2.035331
O	2.035331	4.070661	2.035331
O	2.035331	6.105992	0.000000
W	0.000000	4.070661	0.000000
Au	2.035331	6.105992	6.105992
O	0.000000	6.105992	6.105992
O	2.035331	4.070661	6.105992
O	2.035331	6.105992	4.070661
W	0.000000	4.070661	4.070661
Au	6.105992	2.035331	2.035331
O	4.070661	2.035331	2.035331
O	6.105992	0.000000	2.035331
O	6.105992	2.035331	0.000000
W	4.070661	0.000000	0.000000
Au	6.105992	2.035331	6.105992
O	4.070661	2.035331	6.105992
O	6.105992	0.000000	6.105992
O	6.105992	2.035331	4.070661
W	4.070661	0.000000	4.070661
Au	6.105992	6.105992	2.035331
O	4.070661	6.105992	2.035331
O	6.105992	4.070661	2.035331
O	6.105992	6.105992	0.000000
W	4.070661	4.070661	0.000000
Au	6.105992	6.105992	6.105992
O	4.070661	6.105992	6.105992
O	6.105992	4.070661	6.105992
O	6.105992	6.105992	4.070661
W	4.070661	4.070661	4.070661
