40

Lu	2.142301	2.142301	2.142301
O	2.142301	2.142301	0.000000
O	2.142301	0.000000	2.142301
O	0.000000	2.142301	2.142301
Tl	0.000000	0.000000	0.000000
Lu	2.142301	2.142301	6.426912
O	2.142301	2.142301	4.284611
O	2.142301	0.000000	6.426912
O	0.000000	2.142301	6.426912
Tl	0.000000	0.000000	4.284611
Lu	2.142301	6.426912	2.142301
O	2.142301	6.426912	0.000000
O	2.142301	4.284611	2.142301
O	0.000000	6.426912	2.142301
Tl	0.000000	4.284611	0.000000
Lu	2.142301	6.426912	6.426912
O	2.142301	6.426912	4.284611
O	2.142301	4.284611	6.426912
O	0.000000	6.426912	6.426912
Tl	0.000000	4.284611	4.284611
Lu	6.426912	2.142301	2.142301
O	6.426912	2.142301	0.000000
O	6.426912	0.000000	2.142301
O	4.284611	2.142301	2.142301
Tl	4.284611	0.000000	0.000000
Lu	6.426912	2.142301	6.426912
O	6.426912	2.142301	4.284611
O	6.426912	0.000000	6.426912
O	4.284611	2.142301	6.426912
Tl	4.284611	0.000000	4.284611
Lu	6.426912	6.426912	2.142301
O	6.426912	6.426912	0.000000
O	6.426912	4.284611	2.142301
O	4.284611	6.426912	2.142301
Tl	4.284611	4.284611	0.000000
Lu	6.426912	6.426912	6.426912
O	6.426912	6.426912	4.284611
O	6.426912	4.284611	6.426912
O	4.284611	6.426912	6.426912
Tl	4.284611	4.284611	4.284611
