40

Hg	2.088002	2.088002	2.088002
O	0.000000	2.088002	2.088002
O	2.088002	0.000000	2.088002
O	2.088002	2.088002	0.000000
Pt	0.000000	0.000000	0.000000
Hg	2.088002	2.088002	6.264005
O	0.000000	2.088002	6.264005
O	2.088002	0.000000	6.264005
O	2.088002	2.088002	4.176003
Pt	0.000000	0.000000	4.176003
Hg	2.088002	6.264005	2.088002
O	0.000000	6.264005	2.088002
O	2.088002	4.176003	2.088002
O	2.088002	6.264005	0.000000
Pt	0.000000	4.176003	0.000000
Hg	2.088002	6.264005	6.264005
O	0.000000	6.264005	6.264005
O	2.088002	4.176003	6.264005
O	2.088002	6.264005	4.176003
Pt	0.000000	4.176003	4.176003
Hg	6.264005	2.088002	2.088002
O	4.176003	2.088002	2.088002
O	6.264005	0.000000	2.088002
O	6.264005	2.088002	0.000000
Pt	4.176003	0.000000	0.000000
Hg	6.264005	2.088002	6.264005
O	4.176003	2.088002	6.264005
O	6.264005	0.000000	6.264005
O	6.264005	2.088002	4.176003
Pt	4.176003	0.000000	4.176003
Hg	6.264005	6.264005	2.088002
O	4.176003	6.264005	2.088002
O	6.264005	4.176003	2.088002
O	6.264005	6.264005	0.000000
Pt	4.176003	4.176003	0.000000
Hg	6.264005	6.264005	6.264005
O	4.176003	6.264005	6.264005
O	6.264005	4.176003	6.264005
O	6.264005	6.264005	4.176003
Pt	4.176003	4.176003	4.176003
