40

Ho	2.129068	2.129068	2.129068
O	2.129068	2.129068	0.000000
O	0.000000	2.129068	2.129068
O	2.129068	0.000000	2.129068
U	0.000000	0.000000	0.000000
Ho	2.129068	2.129068	6.387205
O	2.129068	2.129068	4.258136
O	0.000000	2.129068	6.387205
O	2.129068	0.000000	6.387205
U	0.000000	0.000000	4.258136
Ho	2.129068	6.387205	2.129068
O	2.129068	6.387205	0.000000
O	0.000000	6.387205	2.129068
O	2.129068	4.258136	2.129068
U	0.000000	4.258136	0.000000
Ho	2.129068	6.387205	6.387205
O	2.129068	6.387205	4.258136
O	0.000000	6.387205	6.387205
O	2.129068	4.258136	6.387205
U	0.000000	4.258136	4.258136
Ho	6.387205	2.129068	2.129068
O	6.387205	2.129068	0.000000
O	4.258136	2.129068	2.129068
O	6.387205	0.000000	2.129068
U	4.258136	0.000000	0.000000
Ho	6.387205	2.129068	6.387205
O	6.387205	2.129068	4.258136
O	4.258136	2.129068	6.387205
O	6.387205	0.000000	6.387205
U	4.258136	0.000000	4.258136
Ho	6.387205	6.387205	2.129068
O	6.387205	6.387205	0.000000
O	4.258136	6.387205	2.129068
O	6.387205	4.258136	2.129068
U	4.258136	4.258136	0.000000
Ho	6.387205	6.387205	6.387205
O	6.387205	6.387205	4.258136
O	4.258136	6.387205	6.387205
O	6.387205	4.258136	6.387205
U	4.258136	4.258136	4.258136
