40

Eu	2.217151	2.217151	2.217151
Li	0.000000	0.000000	0.000000
O	2.217151	2.217151	0.000000
O	2.217151	0.000000	2.217151
O	0.000000	2.217151	2.217151
Eu	2.217151	2.217151	6.651454
Li	0.000000	0.000000	4.434303
O	2.217151	2.217151	4.434303
O	2.217151	0.000000	6.651454
O	0.000000	2.217151	6.651454
Eu	2.217151	6.651454	2.217151
Li	0.000000	4.434303	0.000000
O	2.217151	6.651454	0.000000
O	2.217151	4.434303	2.217151
O	0.000000	6.651454	2.217151
Eu	2.217151	6.651454	6.651454
Li	0.000000	4.434303	4.434303
O	2.217151	6.651454	4.434303
O	2.217151	4.434303	6.651454
O	0.000000	6.651454	6.651454
Eu	6.651454	2.217151	2.217151
Li	4.434303	0.000000	0.000000
O	6.651454	2.217151	0.000000
O	6.651454	0.000000	2.217151
O	4.434303	2.217151	2.217151
Eu	6.651454	2.217151	6.651454
Li	4.434303	0.000000	4.434303
O	6.651454	2.217151	4.434303
O	6.651454	0.000000	6.651454
O	4.434303	2.217151	6.651454
Eu	6.651454	6.651454	2.217151
Li	4.434303	4.434303	0.000000
O	6.651454	6.651454	0.000000
O	6.651454	4.434303	2.217151
O	4.434303	6.651454	2.217151
Eu	6.651454	6.651454	6.651454
Li	4.434303	4.434303	4.434303
O	6.651454	6.651454	4.434303
O	6.651454	4.434303	6.651454
O	4.434303	6.651454	6.651454
