112

Hg	0.000000	0.000000	0.000000
Hg	2.408704	-2.409887	-2.409887
Ho	-1.204352	-1.204944	-3.614831
Ho	3.613056	1.204944	-1.204944
Ho	6.021760	-1.204944	-1.204944
Ho	1.204352	1.204944	-3.614831
O	3.760907	-1.056635	-1.056635
O	-1.056501	1.056635	-3.763140
O	1.056501	-1.056635	-3.763140
O	1.352203	1.353253	-1.353253
O	5.873909	1.056635	-1.056635
O	1.352203	3.466522	-3.466522
O	3.465205	3.466522	-1.353253
O	3.465205	1.353253	-3.466522
Hg	4.817408	4.819775	0.000000
Hg	7.226112	2.409887	-2.409887
Ho	3.613056	3.614831	-3.614831
Ho	8.430464	6.024718	-1.204944
Ho	10.839168	3.614831	-1.204944
Ho	6.021760	6.024718	-3.614831
O	8.578315	3.763140	-1.056635
O	3.760907	5.876409	-3.763140
O	5.873909	3.763140	-3.763140
O	6.169611	6.173027	-1.353253
O	10.691317	5.876409	-1.056635
O	6.169611	8.286297	-3.466522
O	8.282613	8.286297	-1.353253
O	8.282613	6.173027	-3.466522
Hg	-4.817408	0.000000	-4.819775
Hg	-2.408704	-2.409887	-7.229662
Ho	-6.021760	-1.204944	-8.434606
Ho	-1.204352	1.204944	-6.024718
Ho	1.204352	-1.204944	-6.024718
Ho	-3.613056	1.204944	-8.434606
O	-1.056501	-1.056635	-5.876409
O	-5.873909	1.056635	-8.582915
O	-3.760907	-1.056635	-8.582915
O	-3.465205	1.353253	-6.173027
O	1.056501	1.056635	-5.876409
O	-3.465205	3.466522	-8.286297
O	-1.352203	3.466522	-6.173027
O	-1.352203	1.353253	-8.286297
Hg	0.000000	4.819775	-4.819775
Hg	2.408704	2.409887	-7.229662
Ho	-1.204352	3.614831	-8.434606
Ho	3.613056	6.024718	-6.024718
Ho	6.021760	3.614831	-6.024718
Ho	1.204352	6.024718	-8.434606
O	3.760907	3.763140	-5.876409
O	-1.056501	5.876409	-8.582915
O	1.056501	3.763140	-8.582915
O	1.352203	6.173027	-6.173027
O	5.873909	5.876409	-5.876409
O	1.352203	8.286297	-8.286297
O	3.465205	8.286297	-6.173027
O	3.465205	6.173027	-8.286297
Hg	4.817408	-4.819775	0.000000
Hg	7.226112	-7.229662	-2.409887
Ho	3.613056	-6.024718	-3.614831
Ho	8.430464	-3.614831	-1.204944
Ho	10.839168	-6.024718	-1.204944
Ho	6.021760	-3.614831	-3.614831
O	8.578315	-5.876409	-1.056635
O	3.760907	-3.763140	-3.763140
O	5.873909	-5.876409	-3.763140
O	6.169611	-3.466522	-1.353253
O	10.691317	-3.763140	-1.056635
O	6.169611	-1.353253	-3.466522
O	8.282613	-1.353253	-1.353253
O	8.282613	-3.466522	-3.466522
Hg	9.634816	0.000000	0.000000
Hg	12.043520	-2.409887	-2.409887
Ho	8.430464	-1.204944	-3.614831
Ho	13.247872	1.204944	-1.204944
Ho	15.656576	-1.204944	-1.204944
Ho	10.839168	1.204944	-3.614831
O	13.395723	-1.056635	-1.056635
O	8.578315	1.056635	-3.763140
O	10.691317	-1.056635	-3.763140
O	10.987019	1.353253	-1.353253
O	15.508726	1.056635	-1.056635
O	10.987019	3.466522	-3.466522
O	13.100021	3.466522	-1.353253
O	13.100021	1.353253	-3.466522
Hg	0.000000	-4.819775	-4.819775
Hg	2.408704	-7.229662	-7.229662
Ho	-1.204352	-6.024718	-8.434606
Ho	3.613056	-3.614831	-6.024718
Ho	6.021760	-6.024718	-6.024718
Ho	1.204352	-3.614831	-8.434606
O	3.760907	-5.876409	-5.876409
O	-1.056501	-3.763140	-8.582915
O	1.056501	-5.876409	-8.582915
O	1.352203	-3.466522	-6.173027
O	5.873909	-3.763140	-5.876409
O	1.352203	-1.353253	-8.286297
O	3.465205	-1.353253	-6.173027
O	3.465205	-3.466522	-8.286297
Hg	4.817408	0.000000	-4.819775
Hg	7.226112	-2.409887	-7.229662
Ho	3.613056	-1.204944	-8.434606
Ho	8.430464	1.204944	-6.024718
Ho	10.839168	-1.204944	-6.024718
Ho	6.021760	1.204944	-8.434606
O	8.578315	-1.056635	-5.876409
O	3.760907	1.056635	-8.582915
O	5.873909	-1.056635	-8.582915
O	6.169611	1.353253	-6.173027
O	10.691317	1.056635	-5.876409
O	6.169611	3.466522	-8.286297
O	8.282613	3.466522	-6.173027
O	8.282613	1.353253	-8.286297
