112

Hg	0.000000	0.000000	0.000000
Hg	2.393185	-2.393499	-2.393499
Ho	-1.196592	-1.196744	-3.590243
Ho	1.196592	1.196744	-3.590243
Ho	3.589787	1.196744	-1.196744
Ho	5.982972	-1.196744	-1.196744
O	-1.056153	1.055727	-3.731261
O	3.730227	-1.055727	-1.055727
O	1.056153	-1.055727	-3.731261
O	1.337032	1.337762	-1.337762
O	5.842533	1.055727	-1.055727
O	1.337032	3.449226	-3.449226
O	3.449348	3.449226	-1.337762
O	3.449348	1.337762	-3.449226
Hg	4.786378	4.786992	0.000000
Hg	7.179563	2.393494	-2.393499
Ho	3.589785	3.590248	-3.590243
Ho	5.982970	5.983737	-3.590243
Ho	8.376165	5.983737	-1.196744
Ho	10.769350	3.590248	-1.196744
O	3.730225	5.842720	-3.731261
O	8.516605	3.731265	-1.055727
O	5.842531	3.731265	-3.731261
O	6.123410	6.124754	-1.337762
O	10.628910	5.842720	-1.055727
O	6.123410	8.236219	-3.449226
O	8.235726	8.236219	-1.337762
O	8.235726	6.124754	-3.449226
Hg	-4.786378	0.000000	-4.786992
Hg	-2.393193	-2.393499	-7.180491
Ho	-5.982970	-1.196744	-8.377236
Ho	-3.589785	1.196744	-8.377236
Ho	-1.196591	1.196744	-5.983737
Ho	1.196594	-1.196744	-5.983737
O	-5.842531	1.055727	-8.518253
O	-1.056151	-1.055727	-5.842720
O	-3.730225	-1.055727	-8.518253
O	-3.449346	1.337762	-6.124754
O	1.056155	1.055727	-5.842720
O	-3.449346	3.449226	-8.236219
O	-1.337030	3.449226	-6.124754
O	-1.337030	1.337762	-8.236219
Hg	0.000000	4.786992	-4.786992
Hg	2.393185	2.393494	-7.180491
Ho	-1.196592	3.590248	-8.377236
Ho	1.196592	5.983737	-8.377236
Ho	3.589787	5.983737	-5.983737
Ho	5.982972	3.590248	-5.983737
O	-1.056153	5.842720	-8.518253
O	3.730227	3.731265	-5.842720
O	1.056153	3.731265	-8.518253
O	1.337032	6.124754	-6.124754
O	5.842533	5.842720	-5.842720
O	1.337032	8.236219	-8.236219
O	3.449348	8.236219	-6.124754
O	3.449348	6.124754	-8.236219
Hg	4.786378	-4.786992	0.000000
Hg	7.179563	-7.180491	-2.393499
Ho	3.589785	-5.983737	-3.590243
Ho	5.982970	-3.590248	-3.590243
Ho	8.376165	-3.590248	-1.196744
Ho	10.769350	-5.983737	-1.196744
O	3.730225	-3.731265	-3.731261
O	8.516605	-5.842720	-1.055727
O	5.842531	-5.842720	-3.731261
O	6.123410	-3.449231	-1.337762
O	10.628910	-3.731265	-1.055727
O	6.123410	-1.337766	-3.449226
O	8.235726	-1.337766	-1.337762
O	8.235726	-3.449231	-3.449226
Hg	9.572756	0.000000	0.000000
Hg	11.965941	-2.393499	-2.393499
Ho	8.376163	-1.196744	-3.590243
Ho	10.769348	1.196744	-3.590243
Ho	13.162543	1.196744	-1.196744
Ho	15.555728	-1.196744	-1.196744
O	8.516603	1.055727	-3.731261
O	13.302983	-1.055727	-1.055727
O	10.628909	-1.055727	-3.731261
O	10.909788	1.337762	-1.337762
O	15.415288	1.055727	-1.055727
O	10.909788	3.449226	-3.449226
O	13.022103	3.449226	-1.337762
O	13.022103	1.337762	-3.449226
Hg	0.000000	-4.786992	-4.786992
Hg	2.393185	-7.180491	-7.180491
Ho	-1.196592	-5.983737	-8.377236
Ho	1.196592	-3.590248	-8.377236
Ho	3.589787	-3.590248	-5.983737
Ho	5.982972	-5.983737	-5.983737
O	-1.056153	-3.731265	-8.518253
O	3.730227	-5.842720	-5.842720
O	1.056153	-5.842720	-8.518253
O	1.337032	-3.449231	-6.124754
O	5.842533	-3.731265	-5.842720
O	1.337032	-1.337766	-8.236219
O	3.449348	-1.337766	-6.124754
O	3.449348	-3.449231	-8.236219
Hg	4.786378	0.000000	-4.786992
Hg	7.179563	-2.393499	-7.180491
Ho	3.589785	-1.196744	-8.377236
Ho	5.982970	1.196744	-8.377236
Ho	8.376165	1.196744	-5.983737
Ho	10.769350	-1.196744	-5.983737
O	3.730225	1.055727	-8.518253
O	8.516605	-1.055727	-5.842720
O	5.842531	-1.055727	-8.518253
O	6.123410	1.337762	-6.124754
O	10.628910	1.055727	-5.842720
O	6.123410	3.449226	-8.236219
O	8.235726	3.449226	-6.124754
O	8.235726	1.337762	-8.236219
