40

Ag	2.025520	2.025520	2.025520
Nd	0.000000	0.000000	0.000000
O	2.025520	2.025520	0.000000
O	0.000000	2.025520	2.025520
O	2.025520	0.000000	2.025520
Ag	2.025520	2.025520	6.076561
Nd	0.000000	0.000000	4.051041
O	2.025520	2.025520	4.051041
O	0.000000	2.025520	6.076561
O	2.025520	0.000000	6.076561
Ag	2.025520	6.076561	2.025520
Nd	0.000000	4.051041	0.000000
O	2.025520	6.076561	0.000000
O	0.000000	6.076561	2.025520
O	2.025520	4.051041	2.025520
Ag	2.025520	6.076561	6.076561
Nd	0.000000	4.051041	4.051041
O	2.025520	6.076561	4.051041
O	0.000000	6.076561	6.076561
O	2.025520	4.051041	6.076561
Ag	6.076561	2.025520	2.025520
Nd	4.051041	0.000000	0.000000
O	6.076561	2.025520	0.000000
O	4.051041	2.025520	2.025520
O	6.076561	0.000000	2.025520
Ag	6.076561	2.025520	6.076561
Nd	4.051041	0.000000	4.051041
O	6.076561	2.025520	4.051041
O	4.051041	2.025520	6.076561
O	6.076561	0.000000	6.076561
Ag	6.076561	6.076561	2.025520
Nd	4.051041	4.051041	0.000000
O	6.076561	6.076561	0.000000
O	4.051041	6.076561	2.025520
O	6.076561	4.051041	2.025520
Ag	6.076561	6.076561	6.076561
Nd	4.051041	4.051041	4.051041
O	6.076561	6.076561	4.051041
O	4.051041	6.076561	6.076561
O	6.076561	4.051041	6.076561
