40

Ac	0.000000	0.000000	0.000000
Ga_d	1.974940	1.974940	1.974940
O	1.974940	0.000000	1.974940
O	0.000000	1.974940	1.974940
O	1.974940	1.974940	0.000000
Ac	0.000000	0.000000	3.949889
Ga_d	1.974940	1.974940	5.924829
O	1.974940	0.000000	5.924829
O	0.000000	1.974940	5.924829
O	1.974940	1.974940	3.949889
Ac	0.000000	3.949889	0.000000
Ga_d	1.974940	5.924829	1.974940
O	1.974940	3.949889	1.974940
O	0.000000	5.924829	1.974940
O	1.974940	5.924829	0.000000
Ac	0.000000	3.949889	3.949889
Ga_d	1.974940	5.924829	5.924829
O	1.974940	3.949889	5.924829
O	0.000000	5.924829	5.924829
O	1.974940	5.924829	3.949889
Ac	3.949889	0.000000	0.000000
Ga_d	5.924829	1.974940	1.974940
O	5.924829	0.000000	1.974940
O	3.949889	1.974940	1.974940
O	5.924829	1.974940	0.000000
Ac	3.949889	0.000000	3.949889
Ga_d	5.924829	1.974940	5.924829
O	5.924829	0.000000	5.924829
O	3.949889	1.974940	5.924829
O	5.924829	1.974940	3.949889
Ac	3.949889	3.949889	0.000000
Ga_d	5.924829	5.924829	1.974940
O	5.924829	3.949889	1.974940
O	3.949889	5.924829	1.974940
O	5.924829	5.924829	0.000000
Ac	3.949889	3.949889	3.949889
Ga_d	5.924829	5.924829	5.924829
O	5.924829	3.949889	5.924829
O	3.949889	5.924829	5.924829
O	5.924829	5.924829	3.949889
