40

Al	0.000000	0.000000	0.000000
Bi	2.110906	2.110906	2.110906
O	2.110906	2.110906	0.000000
O	2.110906	0.000000	2.110906
O	0.000000	2.110906	2.110906
Al	0.000000	0.000000	4.221815
Bi	2.110906	2.110906	6.332721
O	2.110906	2.110906	4.221815
O	2.110906	0.000000	6.332721
O	0.000000	2.110906	6.332721
Al	0.000000	4.221815	0.000000
Bi	2.110906	6.332721	2.110906
O	2.110906	6.332721	0.000000
O	2.110906	4.221815	2.110906
O	0.000000	6.332721	2.110906
Al	0.000000	4.221815	4.221815
Bi	2.110906	6.332721	6.332721
O	2.110906	6.332721	4.221815
O	2.110906	4.221815	6.332721
O	0.000000	6.332721	6.332721
Al	4.221815	0.000000	0.000000
Bi	6.332721	2.110906	2.110906
O	6.332721	2.110906	0.000000
O	6.332721	0.000000	2.110906
O	4.221815	2.110906	2.110906
Al	4.221815	0.000000	4.221815
Bi	6.332721	2.110906	6.332721
O	6.332721	2.110906	4.221815
O	6.332721	0.000000	6.332721
O	4.221815	2.110906	6.332721
Al	4.221815	4.221815	0.000000
Bi	6.332721	6.332721	2.110906
O	6.332721	6.332721	0.000000
O	6.332721	4.221815	2.110906
O	4.221815	6.332721	2.110906
Al	4.221815	4.221815	4.221815
Bi	6.332721	6.332721	6.332721
O	6.332721	6.332721	4.221815
O	6.332721	4.221815	6.332721
O	4.221815	6.332721	6.332721
