40

Al	1.896603	1.896603	1.896603
Bi	0.000000	0.000000	0.000000
O	0.000000	1.896603	1.896603
O	1.896603	0.000000	1.896603
O	1.896603	1.896603	0.000000
Al	1.896603	1.896603	5.689809
Bi	0.000000	0.000000	3.793206
O	0.000000	1.896603	5.689809
O	1.896603	0.000000	5.689809
O	1.896603	1.896603	3.793206
Al	1.896603	5.689809	1.896603
Bi	0.000000	3.793206	0.000000
O	0.000000	5.689809	1.896603
O	1.896603	3.793206	1.896603
O	1.896603	5.689809	0.000000
Al	1.896603	5.689809	5.689809
Bi	0.000000	3.793206	3.793206
O	0.000000	5.689809	5.689809
O	1.896603	3.793206	5.689809
O	1.896603	5.689809	3.793206
Al	5.689809	1.896603	1.896603
Bi	3.793206	0.000000	0.000000
O	3.793206	1.896603	1.896603
O	5.689809	0.000000	1.896603
O	5.689809	1.896603	0.000000
Al	5.689809	1.896603	5.689809
Bi	3.793206	0.000000	3.793206
O	3.793206	1.896603	5.689809
O	5.689809	0.000000	5.689809
O	5.689809	1.896603	3.793206
Al	5.689809	5.689809	1.896603
Bi	3.793206	3.793206	0.000000
O	3.793206	5.689809	1.896603
O	5.689809	3.793206	1.896603
O	5.689809	5.689809	0.000000
Al	5.689809	5.689809	5.689809
Bi	3.793206	3.793206	3.793206
O	3.793206	5.689809	5.689809
O	5.689809	3.793206	5.689809
O	5.689809	5.689809	3.793206
