40

Ce	0.000000	0.000000	0.000000
In	2.075920	2.075920	2.075920
O	0.000000	2.075920	2.075920
O	2.075920	0.000000	2.075920
O	2.075920	2.075920	0.000000
Ce	0.000000	0.000000	4.151841
In	2.075920	2.075920	6.227761
O	0.000000	2.075920	6.227761
O	2.075920	0.000000	6.227761
O	2.075920	2.075920	4.151841
Ce	0.000000	4.151841	0.000000
In	2.075920	6.227761	2.075920
O	0.000000	6.227761	2.075920
O	2.075920	4.151841	2.075920
O	2.075920	6.227761	0.000000
Ce	0.000000	4.151841	4.151841
In	2.075920	6.227761	6.227761
O	0.000000	6.227761	6.227761
O	2.075920	4.151841	6.227761
O	2.075920	6.227761	4.151841
Ce	4.151841	0.000000	0.000000
In	6.227761	2.075920	2.075920
O	4.151841	2.075920	2.075920
O	6.227761	0.000000	2.075920
O	6.227761	2.075920	0.000000
Ce	4.151841	0.000000	4.151841
In	6.227761	2.075920	6.227761
O	4.151841	2.075920	6.227761
O	6.227761	0.000000	6.227761
O	6.227761	2.075920	4.151841
Ce	4.151841	4.151841	0.000000
In	6.227761	6.227761	2.075920
O	4.151841	6.227761	2.075920
O	6.227761	4.151841	2.075920
O	6.227761	6.227761	0.000000
Ce	4.151841	4.151841	4.151841
In	6.227761	6.227761	6.227761
O	4.151841	6.227761	6.227761
O	6.227761	4.151841	6.227761
O	6.227761	6.227761	4.151841
