40

Ce	0.000000	0.000000	0.000000
In	2.068230	2.068230	2.068230
O	2.068230	2.068230	0.000000
O	0.000000	2.068230	2.068230
O	2.068230	0.000000	2.068230
Ce	0.000000	0.000000	4.136452
In	2.068230	2.068230	6.204682
O	2.068230	2.068230	4.136452
O	0.000000	2.068230	6.204682
O	2.068230	0.000000	6.204682
Ce	0.000000	4.136452	0.000000
In	2.068230	6.204682	2.068230
O	2.068230	6.204682	0.000000
O	0.000000	6.204682	2.068230
O	2.068230	4.136452	2.068230
Ce	0.000000	4.136452	4.136452
In	2.068230	6.204682	6.204682
O	2.068230	6.204682	4.136452
O	0.000000	6.204682	6.204682
O	2.068230	4.136452	6.204682
Ce	4.136452	0.000000	0.000000
In	6.204682	2.068230	2.068230
O	6.204682	2.068230	0.000000
O	4.136452	2.068230	2.068230
O	6.204682	0.000000	2.068230
Ce	4.136452	0.000000	4.136452
In	6.204682	2.068230	6.204682
O	6.204682	2.068230	4.136452
O	4.136452	2.068230	6.204682
O	6.204682	0.000000	6.204682
Ce	4.136452	4.136452	0.000000
In	6.204682	6.204682	2.068230
O	6.204682	6.204682	0.000000
O	4.136452	6.204682	2.068230
O	6.204682	4.136452	2.068230
Ce	4.136452	4.136452	4.136452
In	6.204682	6.204682	6.204682
O	6.204682	6.204682	4.136452
O	4.136452	6.204682	6.204682
O	6.204682	4.136452	6.204682
