40

Ce	2.263978	2.263978	2.263978
In	0.000000	0.000000	0.000000
O	2.263978	2.263978	0.000000
O	2.263978	0.000000	2.263978
O	0.000000	2.263978	2.263978
Ce	2.263978	2.263978	6.791935
In	0.000000	0.000000	4.527957
O	2.263978	2.263978	4.527957
O	2.263978	0.000000	6.791935
O	0.000000	2.263978	6.791935
Ce	2.263978	6.791935	2.263978
In	0.000000	4.527957	0.000000
O	2.263978	6.791935	0.000000
O	2.263978	4.527957	2.263978
O	0.000000	6.791935	2.263978
Ce	2.263978	6.791935	6.791935
In	0.000000	4.527957	4.527957
O	2.263978	6.791935	4.527957
O	2.263978	4.527957	6.791935
O	0.000000	6.791935	6.791935
Ce	6.791935	2.263978	2.263978
In	4.527957	0.000000	0.000000
O	6.791935	2.263978	0.000000
O	6.791935	0.000000	2.263978
O	4.527957	2.263978	2.263978
Ce	6.791935	2.263978	6.791935
In	4.527957	0.000000	4.527957
O	6.791935	2.263978	4.527957
O	6.791935	0.000000	6.791935
O	4.527957	2.263978	6.791935
Ce	6.791935	6.791935	2.263978
In	4.527957	4.527957	0.000000
O	6.791935	6.791935	0.000000
O	6.791935	4.527957	2.263978
O	4.527957	6.791935	2.263978
Ce	6.791935	6.791935	6.791935
In	4.527957	4.527957	4.527957
O	6.791935	6.791935	4.527957
O	6.791935	4.527957	6.791935
O	4.527957	6.791935	6.791935
