112

Be	0.000000	0.000000	0.000000
Be	2.337560	-2.337730	-2.337730
O	3.424516	-1.250673	-1.250673
O	-1.250603	1.250673	-3.424787
O	1.250603	-1.250673	-3.424787
O	1.086957	1.087057	-1.087057
O	5.925722	1.250673	-1.250673
O	1.086957	3.588403	-3.588403
O	3.588162	3.588403	-1.087057
O	3.588162	1.087057	-3.588403
Pr	-1.168780	-1.168865	-3.506595
Pr	3.506339	1.168865	-1.168865
Pr	5.843899	-1.168865	-1.168865
Pr	1.168780	1.168865	-3.506595
Be	4.675119	4.675459	0.000000
Be	7.012679	2.337730	-2.337730
O	8.099635	3.424787	-1.250673
O	3.424516	5.926132	-3.424787
O	5.925722	3.424787	-3.424787
O	5.762076	5.762516	-1.087057
O	10.600841	5.926132	-1.250673
O	5.762076	8.263862	-3.588403
O	8.263281	8.263862	-1.087057
O	8.263281	5.762516	-3.588403
Pr	3.506339	3.506595	-3.506595
Pr	8.181458	5.844324	-1.168865
Pr	10.519018	3.506595	-1.168865
Pr	5.843899	5.844324	-3.506595
Be	-4.675119	0.000000	-4.675459
Be	-2.337560	-2.337730	-7.013189
O	-1.250603	-1.250673	-5.926132
O	-5.925722	1.250673	-8.100246
O	-3.424516	-1.250673	-8.100246
O	-3.588162	1.087057	-5.762516
O	1.250603	1.250673	-5.926132
O	-3.588162	3.588403	-8.263862
O	-1.086957	3.588403	-5.762516
O	-1.086957	1.087057	-8.263862
Pr	-5.843899	-1.168865	-8.182054
Pr	-1.168780	1.168865	-5.844324
Pr	1.168780	-1.168865	-5.844324
Pr	-3.506339	1.168865	-8.182054
Be	0.000000	4.675459	-4.675459
Be	2.337560	2.337730	-7.013189
O	3.424516	3.424787	-5.926132
O	-1.250603	5.926132	-8.100246
O	1.250603	3.424787	-8.100246
O	1.086957	5.762516	-5.762516
O	5.925722	5.926132	-5.926132
O	1.086957	8.263862	-8.263862
O	3.588162	8.263862	-5.762516
O	3.588162	5.762516	-8.263862
Pr	-1.168780	3.506595	-8.182054
Pr	3.506339	5.844324	-5.844324
Pr	5.843899	3.506595	-5.844324
Pr	1.168780	5.844324	-8.182054
Be	4.675119	-4.675459	0.000000
Be	7.012679	-7.013189	-2.337730
O	8.099635	-5.926132	-1.250673
O	3.424516	-3.424787	-3.424787
O	5.925722	-5.926132	-3.424787
O	5.762076	-3.588403	-1.087057
O	10.600841	-3.424787	-1.250673
O	5.762076	-1.087057	-3.588403
O	8.263281	-1.087057	-1.087057
O	8.263281	-3.588403	-3.588403
Pr	3.506339	-5.844324	-3.506595
Pr	8.181458	-3.506595	-1.168865
Pr	10.519018	-5.844324	-1.168865
Pr	5.843899	-3.506595	-3.506595
Be	9.350238	0.000000	0.000000
Be	11.687798	-2.337730	-2.337730
O	12.774754	-1.250673	-1.250673
O	8.099635	1.250673	-3.424787
O	10.600841	-1.250673	-3.424787
O	10.437195	1.087057	-1.087057
O	15.275960	1.250673	-1.250673
O	10.437195	3.588403	-3.588403
O	12.938400	3.588403	-1.087057
O	12.938400	1.087057	-3.588403
Pr	8.181458	-1.168865	-3.506595
Pr	12.856577	1.168865	-1.168865
Pr	15.194137	-1.168865	-1.168865
Pr	10.519018	1.168865	-3.506595
Be	0.000000	-4.675459	-4.675459
Be	2.337560	-7.013189	-7.013189
O	3.424516	-5.926132	-5.926132
O	-1.250603	-3.424787	-8.100246
O	1.250603	-5.926132	-8.100246
O	1.086957	-3.588403	-5.762516
O	5.925722	-3.424787	-5.926132
O	1.086957	-1.087057	-8.263862
O	3.588162	-1.087057	-5.762516
O	3.588162	-3.588403	-8.263862
Pr	-1.168780	-5.844324	-8.182054
Pr	3.506339	-3.506595	-5.844324
Pr	5.843899	-5.844324	-5.844324
Pr	1.168780	-3.506595	-8.182054
Be	4.675119	0.000000	-4.675459
Be	7.012679	-2.337730	-7.013189
O	8.099635	-1.250673	-5.926132
O	3.424516	1.250673	-8.100246
O	5.925722	-1.250673	-8.100246
O	5.762076	1.087057	-5.762516
O	10.600841	1.250673	-5.926132
O	5.762076	3.588403	-8.263862
O	8.263281	3.588403	-5.762516
O	8.263281	1.087057	-8.263862
Pr	3.506339	-1.168865	-8.182054
Pr	8.181458	1.168865	-5.844324
Pr	10.519018	-1.168865	-5.844324
Pr	5.843899	1.168865	-8.182054
