40

Hg	2.084798	2.084798	2.084798
O	0.000000	2.084798	2.084798
O	2.084798	0.000000	2.084798
O	2.084798	2.084798	0.000000
Ti	0.000000	0.000000	0.000000
Hg	2.084798	2.084798	6.254393
O	0.000000	2.084798	6.254393
O	2.084798	0.000000	6.254393
O	2.084798	2.084798	4.169595
Ti	0.000000	0.000000	4.169595
Hg	2.084798	6.254393	2.084798
O	0.000000	6.254393	2.084798
O	2.084798	4.169595	2.084798
O	2.084798	6.254393	0.000000
Ti	0.000000	4.169595	0.000000
Hg	2.084798	6.254393	6.254393
O	0.000000	6.254393	6.254393
O	2.084798	4.169595	6.254393
O	2.084798	6.254393	4.169595
Ti	0.000000	4.169595	4.169595
Hg	6.254393	2.084798	2.084798
O	4.169595	2.084798	2.084798
O	6.254393	0.000000	2.084798
O	6.254393	2.084798	0.000000
Ti	4.169595	0.000000	0.000000
Hg	6.254393	2.084798	6.254393
O	4.169595	2.084798	6.254393
O	6.254393	0.000000	6.254393
O	6.254393	2.084798	4.169595
Ti	4.169595	0.000000	4.169595
Hg	6.254393	6.254393	2.084798
O	4.169595	6.254393	2.084798
O	6.254393	4.169595	2.084798
O	6.254393	6.254393	0.000000
Ti	4.169595	4.169595	0.000000
Hg	6.254393	6.254393	6.254393
O	4.169595	6.254393	6.254393
O	6.254393	4.169595	6.254393
O	6.254393	6.254393	4.169595
Ti	4.169595	4.169595	4.169595
