40

Br	0.000000	0.000000	0.000000
O	0.000000	2.125288	2.125288
O	2.125288	0.000000	2.125288
O	2.125288	2.125288	0.000000
Zr	2.125288	2.125288	2.125288
Br	0.000000	0.000000	4.250575
O	0.000000	2.125288	6.375863
O	2.125288	0.000000	6.375863
O	2.125288	2.125288	4.250575
Zr	2.125288	2.125288	6.375863
Br	0.000000	4.250575	0.000000
O	0.000000	6.375863	2.125288
O	2.125288	4.250575	2.125288
O	2.125288	6.375863	0.000000
Zr	2.125288	6.375863	2.125288
Br	0.000000	4.250575	4.250575
O	0.000000	6.375863	6.375863
O	2.125288	4.250575	6.375863
O	2.125288	6.375863	4.250575
Zr	2.125288	6.375863	6.375863
Br	4.250575	0.000000	0.000000
O	4.250575	2.125288	2.125288
O	6.375863	0.000000	2.125288
O	6.375863	2.125288	0.000000
Zr	6.375863	2.125288	2.125288
Br	4.250575	0.000000	4.250575
O	4.250575	2.125288	6.375863
O	6.375863	0.000000	6.375863
O	6.375863	2.125288	4.250575
Zr	6.375863	2.125288	6.375863
Br	4.250575	4.250575	0.000000
O	4.250575	6.375863	2.125288
O	6.375863	4.250575	2.125288
O	6.375863	6.375863	0.000000
Zr	6.375863	6.375863	2.125288
Br	4.250575	4.250575	4.250575
O	4.250575	6.375863	6.375863
O	6.375863	4.250575	6.375863
O	6.375863	6.375863	4.250575
Zr	6.375863	6.375863	6.375863
