112

Ca	0.000000	0.000000	0.000000
Ca	2.194841	-2.195679	-2.195679
Fe	-1.097421	-1.097840	-3.293519
Fe	3.292252	1.097840	-1.097840
Fe	1.097421	1.097840	-3.293519
Fe	5.487093	-1.097840	-1.097840
O	-0.947561	0.947235	-3.444134
O	3.442121	-0.947235	-0.947235
O	0.947562	-0.947235	-3.444134
O	1.247280	1.248455	-1.248455
O	5.337234	0.947235	-0.947235
O	1.247280	3.142914	-3.142914
O	3.142393	3.142914	-1.248455
O	3.142393	1.248455	-3.142914
Ca	4.389675	4.391364	0.000000
Ca	6.584516	2.195684	-2.195679
Fe	3.292254	3.293524	-3.293519
Fe	7.681927	5.489203	-1.097840
Fe	5.487096	5.489203	-3.293519
Fe	9.876768	3.293524	-1.097840
O	3.442113	5.338598	-3.444134
O	7.831796	3.444129	-0.947235
O	5.337236	3.444129	-3.444134
O	5.636955	5.639818	-1.248455
O	9.726909	5.338598	-0.947235
O	5.636955	7.534277	-3.142914
O	7.532068	7.534277	-1.248455
O	7.532068	5.639818	-3.142914
Ca	-4.389675	0.000000	-4.391364
Ca	-2.194834	-2.195679	-6.587043
Fe	-5.487096	-1.097840	-7.684882
Fe	-1.097423	1.097840	-5.489203
Fe	-3.292254	1.097840	-7.684882
Fe	1.097418	-1.097840	-5.489203
O	-5.337236	0.947235	-7.835497
O	-0.947554	-0.947235	-5.338598
O	-3.442113	-0.947235	-7.835497
O	-3.142395	1.248455	-5.639818
O	0.947559	0.947235	-5.338598
O	-3.142395	3.142914	-7.534277
O	-1.247282	3.142914	-5.639818
O	-1.247282	1.248455	-7.534277
Ca	0.000000	4.391364	-4.391364
Ca	2.194841	2.195684	-6.587043
Fe	-1.097421	3.293524	-7.684882
Fe	3.292252	5.489203	-5.489203
Fe	1.097421	5.489203	-7.684882
Fe	5.487093	3.293524	-5.489203
O	-0.947561	5.338598	-7.835497
O	3.442121	3.444129	-5.338598
O	0.947562	3.444129	-7.835497
O	1.247280	5.639818	-5.639818
O	5.337234	5.338598	-5.338598
O	1.247280	7.534277	-7.534277
O	3.142393	7.534277	-5.639818
O	3.142393	5.639818	-7.534277
Ca	4.389675	-4.391364	0.000000
Ca	6.584516	-6.587043	-2.195679
Fe	3.292254	-5.489203	-3.293519
Fe	7.681927	-3.293524	-1.097840
Fe	5.487096	-3.293524	-3.293519
Fe	9.876768	-5.489203	-1.097840
O	3.442113	-3.444129	-3.444134
O	7.831796	-5.338598	-0.947235
O	5.337236	-5.338598	-3.444134
O	5.636955	-3.142909	-1.248455
O	9.726909	-3.444129	-0.947235
O	5.636955	-1.248450	-3.142914
O	7.532068	-1.248450	-1.248455
O	7.532068	-3.142909	-3.142914
Ca	8.779350	0.000000	0.000000
Ca	10.974191	-2.195679	-2.195679
Fe	7.681929	-1.097840	-3.293519
Fe	12.071602	1.097840	-1.097840
Fe	9.876771	1.097840	-3.293519
Fe	14.266443	-1.097840	-1.097840
O	7.831788	0.947235	-3.444134
O	12.221471	-0.947235	-0.947235
O	9.726911	-0.947235	-3.444134
O	10.026630	1.248455	-1.248455
O	14.116584	0.947235	-0.947235
O	10.026630	3.142914	-3.142914
O	11.921743	3.142914	-1.248455
O	11.921743	1.248455	-3.142914
Ca	0.000000	-4.391364	-4.391364
Ca	2.194841	-6.587043	-6.587043
Fe	-1.097421	-5.489203	-7.684882
Fe	3.292252	-3.293524	-5.489203
Fe	1.097421	-3.293524	-7.684882
Fe	5.487093	-5.489203	-5.489203
O	-0.947561	-3.444129	-7.835497
O	3.442121	-5.338598	-5.338598
O	0.947562	-5.338598	-7.835497
O	1.247280	-3.142909	-5.639818
O	5.337234	-3.444129	-5.338598
O	1.247280	-1.248450	-7.534277
O	3.142393	-1.248450	-5.639818
O	3.142393	-3.142909	-7.534277
Ca	4.389675	0.000000	-4.391364
Ca	6.584516	-2.195679	-6.587043
Fe	3.292254	-1.097840	-7.684882
Fe	7.681927	1.097840	-5.489203
Fe	5.487096	1.097840	-7.684882
Fe	9.876768	-1.097840	-5.489203
O	3.442113	0.947235	-7.835497
O	7.831796	-0.947235	-5.338598
O	5.337236	-0.947235	-7.835497
O	5.636955	1.248455	-5.639818
O	9.726909	0.947235	-5.338598
O	5.636955	3.142914	-7.534277
O	7.532068	3.142914	-5.639818
O	7.532068	1.248455	-7.534277
