40

Gd	0.000000	0.000000	0.000000
In	2.056280	2.056280	2.056280
O	2.056280	2.056280	0.000000
O	2.056280	0.000000	2.056280
O	0.000000	2.056280	2.056280
Gd	0.000000	0.000000	4.112559
In	2.056280	2.056280	6.168839
O	2.056280	2.056280	4.112559
O	2.056280	0.000000	6.168839
O	0.000000	2.056280	6.168839
Gd	0.000000	4.112559	0.000000
In	2.056280	6.168839	2.056280
O	2.056280	6.168839	0.000000
O	2.056280	4.112559	2.056280
O	0.000000	6.168839	2.056280
Gd	0.000000	4.112559	4.112559
In	2.056280	6.168839	6.168839
O	2.056280	6.168839	4.112559
O	2.056280	4.112559	6.168839
O	0.000000	6.168839	6.168839
Gd	4.112559	0.000000	0.000000
In	6.168839	2.056280	2.056280
O	6.168839	2.056280	0.000000
O	6.168839	0.000000	2.056280
O	4.112559	2.056280	2.056280
Gd	4.112559	0.000000	4.112559
In	6.168839	2.056280	6.168839
O	6.168839	2.056280	4.112559
O	6.168839	0.000000	6.168839
O	4.112559	2.056280	6.168839
Gd	4.112559	4.112559	0.000000
In	6.168839	6.168839	2.056280
O	6.168839	6.168839	0.000000
O	6.168839	4.112559	2.056280
O	4.112559	6.168839	2.056280
Gd	4.112559	4.112559	4.112559
In	6.168839	6.168839	6.168839
O	6.168839	6.168839	4.112559
O	6.168839	4.112559	6.168839
O	4.112559	6.168839	6.168839
