40

O	0.000000	1.948999	1.948999
O	1.948999	0.000000	1.948999
O	1.948999	1.948999	0.000000
Rh	1.948999	1.948999	1.948999
Si	0.000000	0.000000	0.000000
O	0.000000	1.948999	5.846998
O	1.948999	0.000000	5.846998
O	1.948999	1.948999	3.897999
Rh	1.948999	1.948999	5.846998
Si	0.000000	0.000000	3.897999
O	0.000000	5.846998	1.948999
O	1.948999	3.897999	1.948999
O	1.948999	5.846998	0.000000
Rh	1.948999	5.846998	1.948999
Si	0.000000	3.897999	0.000000
O	0.000000	5.846998	5.846998
O	1.948999	3.897999	5.846998
O	1.948999	5.846998	3.897999
Rh	1.948999	5.846998	5.846998
Si	0.000000	3.897999	3.897999
O	3.897999	1.948999	1.948999
O	5.846998	0.000000	1.948999
O	5.846998	1.948999	0.000000
Rh	5.846998	1.948999	1.948999
Si	3.897999	0.000000	0.000000
O	3.897999	1.948999	5.846998
O	5.846998	0.000000	5.846998
O	5.846998	1.948999	3.897999
Rh	5.846998	1.948999	5.846998
Si	3.897999	0.000000	3.897999
O	3.897999	5.846998	1.948999
O	5.846998	3.897999	1.948999
O	5.846998	5.846998	0.000000
Rh	5.846998	5.846998	1.948999
Si	3.897999	3.897999	0.000000
O	3.897999	5.846998	5.846998
O	5.846998	3.897999	5.846998
O	5.846998	5.846998	3.897999
Rh	5.846998	5.846998	5.846998
Si	3.897999	3.897999	3.897999
