40

Ba	2.387754	2.387754	2.387754
Ir	0.000000	0.000000	0.000000
O	2.387754	2.387754	0.000000
O	2.387754	0.000000	2.387754
O	0.000000	2.387754	2.387754
Ba	2.387754	2.387754	7.163263
Ir	0.000000	0.000000	4.775509
O	2.387754	2.387754	4.775509
O	2.387754	0.000000	7.163263
O	0.000000	2.387754	7.163263
Ba	2.387754	7.163263	2.387754
Ir	0.000000	4.775509	0.000000
O	2.387754	7.163263	0.000000
O	2.387754	4.775509	2.387754
O	0.000000	7.163263	2.387754
Ba	2.387754	7.163263	7.163263
Ir	0.000000	4.775509	4.775509
O	2.387754	7.163263	4.775509
O	2.387754	4.775509	7.163263
O	0.000000	7.163263	7.163263
Ba	7.163263	2.387754	2.387754
Ir	4.775509	0.000000	0.000000
O	7.163263	2.387754	0.000000
O	7.163263	0.000000	2.387754
O	4.775509	2.387754	2.387754
Ba	7.163263	2.387754	7.163263
Ir	4.775509	0.000000	4.775509
O	7.163263	2.387754	4.775509
O	7.163263	0.000000	7.163263
O	4.775509	2.387754	7.163263
Ba	7.163263	7.163263	2.387754
Ir	4.775509	4.775509	0.000000
O	7.163263	7.163263	0.000000
O	7.163263	4.775509	2.387754
O	4.775509	7.163263	2.387754
Ba	7.163263	7.163263	7.163263
Ir	4.775509	4.775509	4.775509
O	7.163263	7.163263	4.775509
O	7.163263	4.775509	7.163263
O	4.775509	7.163263	7.163263
