40

In	2.068669	2.068669	2.068669
O	0.000000	2.068669	2.068669
O	2.068669	0.000000	2.068669
O	2.068669	2.068669	0.000000
S	0.000000	0.000000	0.000000
In	2.068669	2.068669	6.206008
O	0.000000	2.068669	6.206008
O	2.068669	0.000000	6.206008
O	2.068669	2.068669	4.137339
S	0.000000	0.000000	4.137339
In	2.068669	6.206008	2.068669
O	0.000000	6.206008	2.068669
O	2.068669	4.137339	2.068669
O	2.068669	6.206008	0.000000
S	0.000000	4.137339	0.000000
In	2.068669	6.206008	6.206008
O	0.000000	6.206008	6.206008
O	2.068669	4.137339	6.206008
O	2.068669	6.206008	4.137339
S	0.000000	4.137339	4.137339
In	6.206008	2.068669	2.068669
O	4.137339	2.068669	2.068669
O	6.206008	0.000000	2.068669
O	6.206008	2.068669	0.000000
S	4.137339	0.000000	0.000000
In	6.206008	2.068669	6.206008
O	4.137339	2.068669	6.206008
O	6.206008	0.000000	6.206008
O	6.206008	2.068669	4.137339
S	4.137339	0.000000	4.137339
In	6.206008	6.206008	2.068669
O	4.137339	6.206008	2.068669
O	6.206008	4.137339	2.068669
O	6.206008	6.206008	0.000000
S	4.137339	4.137339	0.000000
In	6.206008	6.206008	6.206008
O	4.137339	6.206008	6.206008
O	6.206008	4.137339	6.206008
O	6.206008	6.206008	4.137339
S	4.137339	4.137339	4.137339
