40

In	2.067123	2.067123	2.067123
O	0.000000	2.067123	2.067123
O	2.067123	0.000000	2.067123
O	2.067123	2.067123	0.000000
S	0.000000	0.000000	0.000000
In	2.067123	2.067123	6.201369
O	0.000000	2.067123	6.201369
O	2.067123	0.000000	6.201369
O	2.067123	2.067123	4.134246
S	0.000000	0.000000	4.134246
In	2.067123	6.201369	2.067123
O	0.000000	6.201369	2.067123
O	2.067123	4.134246	2.067123
O	2.067123	6.201369	0.000000
S	0.000000	4.134246	0.000000
In	2.067123	6.201369	6.201369
O	0.000000	6.201369	6.201369
O	2.067123	4.134246	6.201369
O	2.067123	6.201369	4.134246
S	0.000000	4.134246	4.134246
In	6.201369	2.067123	2.067123
O	4.134246	2.067123	2.067123
O	6.201369	0.000000	2.067123
O	6.201369	2.067123	0.000000
S	4.134246	0.000000	0.000000
In	6.201369	2.067123	6.201369
O	4.134246	2.067123	6.201369
O	6.201369	0.000000	6.201369
O	6.201369	2.067123	4.134246
S	4.134246	0.000000	4.134246
In	6.201369	6.201369	2.067123
O	4.134246	6.201369	2.067123
O	6.201369	4.134246	2.067123
O	6.201369	6.201369	0.000000
S	4.134246	4.134246	0.000000
In	6.201369	6.201369	6.201369
O	4.134246	6.201369	6.201369
O	6.201369	4.134246	6.201369
O	6.201369	6.201369	4.134246
S	4.134246	4.134246	4.134246
