40

Hg	2.099618	2.099618	2.099618
O	0.000000	2.099618	2.099618
O	2.099618	0.000000	2.099618
O	2.099618	2.099618	0.000000
Ta	0.000000	0.000000	0.000000
Hg	2.099618	2.099618	6.298853
O	0.000000	2.099618	6.298853
O	2.099618	0.000000	6.298853
O	2.099618	2.099618	4.199236
Ta	0.000000	0.000000	4.199236
Hg	2.099618	6.298853	2.099618
O	0.000000	6.298853	2.099618
O	2.099618	4.199236	2.099618
O	2.099618	6.298853	0.000000
Ta	0.000000	4.199236	0.000000
Hg	2.099618	6.298853	6.298853
O	0.000000	6.298853	6.298853
O	2.099618	4.199236	6.298853
O	2.099618	6.298853	4.199236
Ta	0.000000	4.199236	4.199236
Hg	6.298853	2.099618	2.099618
O	4.199236	2.099618	2.099618
O	6.298853	0.000000	2.099618
O	6.298853	2.099618	0.000000
Ta	4.199236	0.000000	0.000000
Hg	6.298853	2.099618	6.298853
O	4.199236	2.099618	6.298853
O	6.298853	0.000000	6.298853
O	6.298853	2.099618	4.199236
Ta	4.199236	0.000000	4.199236
Hg	6.298853	6.298853	2.099618
O	4.199236	6.298853	2.099618
O	6.298853	4.199236	2.099618
O	6.298853	6.298853	0.000000
Ta	4.199236	4.199236	0.000000
Hg	6.298853	6.298853	6.298853
O	4.199236	6.298853	6.298853
O	6.298853	4.199236	6.298853
O	6.298853	6.298853	4.199236
Ta	4.199236	4.199236	4.199236
