112

O	3.638746	-1.128008	-1.128008
O	-1.128325	1.128008	-3.640067
O	1.128325	-1.128008	-3.640067
O	1.255210	1.256030	-1.256030
O	5.895396	1.128008	-1.128008
O	1.255210	3.512045	-3.512045
O	3.511861	3.512045	-1.256030
O	3.511861	1.256030	-3.512045
Y	0.000000	0.000000	0.000000
Y	2.383536	-2.384037	-2.384037
Yb	-1.191768	-1.192019	-3.576056
Yb	3.575303	1.192019	-1.192019
Yb	5.958839	-1.192019	-1.192019
Yb	1.191768	1.192019	-3.576056
O	8.405817	3.640067	-1.128008
O	3.638746	5.896083	-3.640067
O	5.895396	3.640067	-3.640067
O	6.022281	6.024105	-1.256030
O	10.662467	5.896083	-1.128008
O	6.022281	8.280120	-3.512045
O	8.278932	8.280120	-1.256030
O	8.278932	6.024105	-3.512045
Y	4.767071	4.768075	0.000000
Y	7.150607	2.384037	-2.384037
Yb	3.575303	3.576056	-3.576056
Yb	8.342374	5.960094	-1.192019
Yb	10.725910	3.576056	-1.192019
Yb	5.958839	5.960094	-3.576056
O	-1.128325	-1.128008	-5.896083
O	-5.895396	1.128008	-8.408142
O	-3.638746	-1.128008	-8.408142
O	-3.511861	1.256030	-6.024105
O	1.128325	1.128008	-5.896083
O	-3.511861	3.512045	-8.280120
O	-1.255210	3.512045	-6.024105
O	-1.255210	1.256030	-8.280120
Y	-4.767071	0.000000	-4.768075
Y	-2.383536	-2.384037	-7.152112
Yb	-5.958839	-1.192019	-8.344131
Yb	-1.191768	1.192019	-5.960094
Yb	1.191768	-1.192019	-5.960094
Yb	-3.575303	1.192019	-8.344131
O	3.638746	3.640067	-5.896083
O	-1.128325	5.896083	-8.408142
O	1.128325	3.640067	-8.408142
O	1.255210	6.024105	-6.024105
O	5.895396	5.896083	-5.896083
O	1.255210	8.280120	-8.280120
O	3.511861	8.280120	-6.024105
O	3.511861	6.024105	-8.280120
Y	0.000000	4.768075	-4.768075
Y	2.383536	2.384037	-7.152112
Yb	-1.191768	3.576056	-8.344131
Yb	3.575303	5.960094	-5.960094
Yb	5.958839	3.576056	-5.960094
Yb	1.191768	5.960094	-8.344131
O	8.405817	-5.896083	-1.128008
O	3.638746	-3.640067	-3.640067
O	5.895396	-5.896083	-3.640067
O	6.022281	-3.512045	-1.256030
O	10.662467	-3.640067	-1.128008
O	6.022281	-1.256030	-3.512045
O	8.278932	-1.256030	-1.256030
O	8.278932	-3.512045	-3.512045
Y	4.767071	-4.768075	0.000000
Y	7.150607	-7.152112	-2.384037
Yb	3.575303	-5.960094	-3.576056
Yb	8.342374	-3.576056	-1.192019
Yb	10.725910	-5.960094	-1.192019
Yb	5.958839	-3.576056	-3.576056
O	13.172888	-1.128008	-1.128008
O	8.405817	1.128008	-3.640067
O	10.662467	-1.128008	-3.640067
O	10.789352	1.256030	-1.256030
O	15.429538	1.128008	-1.128008
O	10.789352	3.512045	-3.512045
O	13.046003	3.512045	-1.256030
O	13.046003	1.256030	-3.512045
Y	9.534142	0.000000	0.000000
Y	11.917678	-2.384037	-2.384037
Yb	8.342374	-1.192019	-3.576056
Yb	13.109445	1.192019	-1.192019
Yb	15.492981	-1.192019	-1.192019
Yb	10.725910	1.192019	-3.576056
O	3.638746	-5.896083	-5.896083
O	-1.128325	-3.640067	-8.408142
O	1.128325	-5.896083	-8.408142
O	1.255210	-3.512045	-6.024105
O	5.895396	-3.640067	-5.896083
O	1.255210	-1.256030	-8.280120
O	3.511861	-1.256030	-6.024105
O	3.511861	-3.512045	-8.280120
Y	0.000000	-4.768075	-4.768075
Y	2.383536	-7.152112	-7.152112
Yb	-1.191768	-5.960094	-8.344131
Yb	3.575303	-3.576056	-5.960094
Yb	5.958839	-5.960094	-5.960094
Yb	1.191768	-3.576056	-8.344131
O	8.405817	-1.128008	-5.896083
O	3.638746	1.128008	-8.408142
O	5.895396	-1.128008	-8.408142
O	6.022281	1.256030	-6.024105
O	10.662467	1.128008	-5.896083
O	6.022281	3.512045	-8.280120
O	8.278932	3.512045	-6.024105
O	8.278932	1.256030	-8.280120
Y	4.767071	0.000000	-4.768075
Y	7.150607	-2.384037	-7.152112
Yb	3.575303	-1.192019	-8.344131
Yb	8.342374	1.192019	-5.960094
Yb	10.725910	-1.192019	-5.960094
Yb	5.958839	1.192019	-8.344131
