112

O	3.685272	-1.119492	-1.119492
O	-1.119920	1.119492	-3.686567
O	1.119920	-1.119492	-3.686567
O	1.282676	1.283538	-1.283538
O	5.925113	1.119492	-1.119492
O	1.282676	3.522522	-3.522522
O	3.522517	3.522522	-1.283538
O	3.522517	1.283538	-3.522522
Sm	0.000000	0.000000	0.000000
Sm	2.402596	-2.403030	-2.403030
Yb	-1.201298	-1.201515	-3.604544
Yb	3.603895	1.201515	-1.201515
Yb	6.006491	-1.201515	-1.201515
Yb	1.201298	1.201515	-3.604544
O	8.490465	3.686567	-1.119492
O	3.685272	5.925551	-3.686567
O	5.925113	3.686567	-3.686567
O	6.087869	6.089597	-1.283538
O	10.730306	5.925551	-1.119492
O	6.087869	8.328581	-3.522522
O	8.327710	8.328581	-1.283538
O	8.327710	6.089597	-3.522522
Sm	4.805193	4.806059	0.000000
Sm	7.207789	2.403030	-2.403030
Yb	3.603895	3.604544	-3.604544
Yb	8.409088	6.007574	-1.201515
Yb	10.811684	3.604544	-1.201515
Yb	6.006491	6.007574	-3.604544
O	-1.119920	-1.119492	-5.925551
O	-5.925113	1.119492	-8.492626
O	-3.685272	-1.119492	-8.492626
O	-3.522517	1.283538	-6.089597
O	1.119920	1.119492	-5.925551
O	-3.522517	3.522522	-8.328581
O	-1.282676	3.522522	-6.089597
O	-1.282676	1.283538	-8.328581
Sm	-4.805193	0.000000	-4.806059
Sm	-2.402596	-2.403030	-7.209089
Yb	-6.006491	-1.201515	-8.410604
Yb	-1.201298	1.201515	-6.007574
Yb	1.201298	-1.201515	-6.007574
Yb	-3.603895	1.201515	-8.410604
O	3.685272	3.686567	-5.925551
O	-1.119920	5.925551	-8.492626
O	1.119920	3.686567	-8.492626
O	1.282676	6.089597	-6.089597
O	5.925113	5.925551	-5.925551
O	1.282676	8.328581	-8.328581
O	3.522517	8.328581	-6.089597
O	3.522517	6.089597	-8.328581
Sm	0.000000	4.806059	-4.806059
Sm	2.402596	2.403030	-7.209089
Yb	-1.201298	3.604544	-8.410604
Yb	3.603895	6.007574	-6.007574
Yb	6.006491	3.604544	-6.007574
Yb	1.201298	6.007574	-8.410604
O	8.490465	-5.925551	-1.119492
O	3.685272	-3.686567	-3.686567
O	5.925113	-5.925551	-3.686567
O	6.087869	-3.522522	-1.283538
O	10.730306	-3.686567	-1.119492
O	6.087869	-1.283538	-3.522522
O	8.327710	-1.283538	-1.283538
O	8.327710	-3.522522	-3.522522
Sm	4.805193	-4.806059	0.000000
Sm	7.207789	-7.209089	-2.403030
Yb	3.603895	-6.007574	-3.604544
Yb	8.409088	-3.604544	-1.201515
Yb	10.811684	-6.007574	-1.201515
Yb	6.006491	-3.604544	-3.604544
O	13.295658	-1.119492	-1.119492
O	8.490465	1.119492	-3.686567
O	10.730306	-1.119492	-3.686567
O	10.893062	1.283538	-1.283538
O	15.535499	1.119492	-1.119492
O	10.893062	3.522522	-3.522522
O	13.132903	3.522522	-1.283538
O	13.132903	1.283538	-3.522522
Sm	9.610386	0.000000	0.000000
Sm	12.012982	-2.403030	-2.403030
Yb	8.409088	-1.201515	-3.604544
Yb	13.214281	1.201515	-1.201515
Yb	15.616877	-1.201515	-1.201515
Yb	10.811684	1.201515	-3.604544
O	3.685272	-5.925551	-5.925551
O	-1.119920	-3.686567	-8.492626
O	1.119920	-5.925551	-8.492626
O	1.282676	-3.522522	-6.089597
O	5.925113	-3.686567	-5.925551
O	1.282676	-1.283538	-8.328581
O	3.522517	-1.283538	-6.089597
O	3.522517	-3.522522	-8.328581
Sm	0.000000	-4.806059	-4.806059
Sm	2.402596	-7.209089	-7.209089
Yb	-1.201298	-6.007574	-8.410604
Yb	3.603895	-3.604544	-6.007574
Yb	6.006491	-6.007574	-6.007574
Yb	1.201298	-3.604544	-8.410604
O	8.490465	-1.119492	-5.925551
O	3.685272	1.119492	-8.492626
O	5.925113	-1.119492	-8.492626
O	6.087869	1.283538	-6.089597
O	10.730306	1.119492	-5.925551
O	6.087869	3.522522	-8.328581
O	8.327710	3.522522	-6.089597
O	8.327710	1.283538	-8.328581
Sm	4.805193	0.000000	-4.806059
Sm	7.207789	-2.403030	-7.209089
Yb	3.603895	-1.201515	-8.410604
Yb	8.409088	1.201515	-6.007574
Yb	10.811684	-1.201515	-6.007574
Yb	6.006491	1.201515	-8.410604
