64

Fe	0.000481	-3.452864	-0.629974
Fe	0.000148	-3.453099	-4.311008
O	-0.001072	-1.726302	-4.937383
O	4.484306	-4.314968	-4.937547
O	-1.495436	-2.589382	0.000404
O	-0.003645	-3.450128	-2.470287
Tl	2.991617	-5.179289	-1.822567
Tl	-2.987839	-1.727374	-3.118230
Fe	2.990446	-5.179059	-5.569065
Fe	2.990112	-5.179295	-9.250099
O	2.988893	-3.452498	-9.876474
O	7.474271	-6.041163	-9.876638
O	1.494528	-4.315577	-4.938687
O	2.986320	-5.176323	-7.409378
Tl	5.981582	-6.905484	-6.761658
Tl	0.002125	-3.453569	-8.057321
Fe	-5.979714	-3.453169	-0.630026
Fe	-5.980048	-3.453405	-4.311060
O	-5.981268	-1.726608	-4.937435
O	-1.495890	-4.315274	-4.937599
O	-7.475632	-2.589688	0.000352
O	-5.983841	-3.450434	-2.470339
Tl	-2.988579	-5.179595	-1.822619
Tl	-8.968035	-1.727680	-3.118282
Fe	-2.989750	-5.179365	-5.569117
Fe	-2.990083	-5.179601	-9.250151
O	-2.991303	-3.452804	-9.876526
O	1.494075	-6.041469	-9.876690
O	-4.485667	-4.315883	-4.938739
O	-2.993876	-5.176629	-7.409429
Tl	0.001386	-6.905790	-6.761710
Tl	-5.978070	-3.453875	-8.057373
Fe	2.990314	-8.631279	-0.630115
Fe	2.989981	-8.631515	-4.311149
O	2.988761	-6.904718	-4.937524
O	7.474139	-9.493383	-4.937689
O	1.494397	-7.767798	0.000262
O	2.986188	-8.628543	-2.470428
Tl	5.981450	-10.357705	-1.822709
Tl	0.001994	-6.905790	-3.118371
Fe	5.980279	-10.357475	-5.569206
Fe	5.979945	-10.357710	-9.250240
O	5.978725	-8.630913	-9.876615
O	10.464103	-11.219579	-9.876779
O	4.484361	-9.493993	-4.938828
O	5.976152	-10.354739	-7.409519
Tl	8.971414	-12.083900	-6.761799
Tl	2.991958	-8.631985	-8.057462
Fe	-2.989881	-8.631585	-0.630167
Fe	-2.990215	-8.631821	-4.311201
O	-2.991435	-6.905024	-4.937576
O	1.493943	-9.493689	-4.937740
O	-4.485799	-7.768104	0.000211
O	-2.994008	-8.628849	-2.470480
Tl	0.001254	-10.358011	-1.822760
Tl	-5.978202	-6.906096	-3.118423
Fe	0.000083	-10.357781	-5.569258
Fe	-0.000250	-10.358016	-9.250292
O	-0.001470	-8.631219	-9.876667
O	4.483908	-11.219885	-9.876831
O	-1.495835	-9.494299	-4.938880
O	-0.004043	-10.355045	-7.409571
Tl	2.991219	-12.084206	-6.761851
Tl	-2.988238	-8.632291	-8.057514
