40

Br	0.000000	0.000000	0.000000
O	0.000000	2.027873	2.027873
O	2.027873	0.000000	2.027873
O	2.027873	2.027873	0.000000
Zn	2.027873	2.027873	2.027873
Br	0.000000	0.000000	4.055747
O	0.000000	2.027873	6.083620
O	2.027873	0.000000	6.083620
O	2.027873	2.027873	4.055747
Zn	2.027873	2.027873	6.083620
Br	0.000000	4.055747	0.000000
O	0.000000	6.083620	2.027873
O	2.027873	4.055747	2.027873
O	2.027873	6.083620	0.000000
Zn	2.027873	6.083620	2.027873
Br	0.000000	4.055747	4.055747
O	0.000000	6.083620	6.083620
O	2.027873	4.055747	6.083620
O	2.027873	6.083620	4.055747
Zn	2.027873	6.083620	6.083620
Br	4.055747	0.000000	0.000000
O	4.055747	2.027873	2.027873
O	6.083620	0.000000	2.027873
O	6.083620	2.027873	0.000000
Zn	6.083620	2.027873	2.027873
Br	4.055747	0.000000	4.055747
O	4.055747	2.027873	6.083620
O	6.083620	0.000000	6.083620
O	6.083620	2.027873	4.055747
Zn	6.083620	2.027873	6.083620
Br	4.055747	4.055747	0.000000
O	4.055747	6.083620	2.027873
O	6.083620	4.055747	2.027873
O	6.083620	6.083620	0.000000
Zn	6.083620	6.083620	2.027873
Br	4.055747	4.055747	4.055747
O	4.055747	6.083620	6.083620
O	6.083620	4.055747	6.083620
O	6.083620	6.083620	4.055747
Zn	6.083620	6.083620	6.083620
