112

O	3.579301	-1.250382	-1.250382
O	-1.253729	1.250382	-3.576795
O	1.253729	-1.250382	-3.576795
O	1.162786	1.163206	-1.163206
O	6.086758	1.250382	-1.250382
O	1.162786	3.663970	-3.663970
O	3.670243	3.663970	-1.163206
O	3.670243	1.163206	-3.663970
Sc	0.000000	0.000000	0.000000
Sc	2.416515	-2.413588	-2.413588
Te	-1.208257	-1.206794	-3.620382
Te	3.624772	1.206794	-1.206794
Te	6.041287	-1.206794	-1.206794
Te	1.208257	1.206794	-3.620382
O	8.412330	3.576795	-1.250382
O	3.579301	6.077559	-3.576795
O	6.086758	3.576795	-3.576795
O	5.995815	5.990383	-1.163206
O	10.919788	6.077559	-1.250382
O	5.995815	8.491147	-3.663970
O	8.503273	8.491147	-1.163206
O	8.503273	5.990383	-3.663970
Sc	4.833029	4.827177	0.000000
Sc	7.249544	2.413588	-2.413588
Te	3.624772	3.620382	-3.620382
Te	8.457801	6.033971	-1.206794
Te	10.874316	3.620382	-1.206794
Te	6.041287	6.033971	-3.620382
O	-1.253729	-1.250382	-6.077559
O	-6.086758	1.250382	-8.403971
O	-3.579301	-1.250382	-8.403971
O	-3.670243	1.163206	-5.990383
O	1.253729	1.250382	-6.077559
O	-3.670243	3.663970	-8.491147
O	-1.162786	3.663970	-5.990383
O	-1.162786	1.163206	-8.491147
Sc	-4.833029	0.000000	-4.827177
Sc	-2.416515	-2.413588	-7.240765
Te	-6.041287	-1.206794	-8.447559
Te	-1.208257	1.206794	-6.033971
Te	1.208257	-1.206794	-6.033971
Te	-3.624772	1.206794	-8.447559
O	3.579301	3.576795	-6.077559
O	-1.253729	6.077559	-8.403971
O	1.253729	3.576795	-8.403971
O	1.162786	5.990383	-5.990383
O	6.086758	6.077559	-6.077559
O	1.162786	8.491147	-8.491147
O	3.670243	8.491147	-5.990383
O	3.670243	5.990383	-8.491147
Sc	0.000000	4.827177	-4.827177
Sc	2.416515	2.413588	-7.240765
Te	-1.208257	3.620382	-8.447559
Te	3.624772	6.033971	-6.033971
Te	6.041287	3.620382	-6.033971
Te	1.208257	6.033971	-8.447559
O	8.412330	-6.077559	-1.250382
O	3.579301	-3.576795	-3.576795
O	6.086758	-6.077559	-3.576795
O	5.995815	-3.663970	-1.163206
O	10.919788	-3.576795	-1.250382
O	5.995815	-1.163206	-3.663970
O	8.503273	-1.163206	-1.163206
O	8.503273	-3.663970	-3.663970
Sc	4.833029	-4.827177	0.000000
Sc	7.249544	-7.240765	-2.413588
Te	3.624772	-6.033971	-3.620382
Te	8.457801	-3.620382	-1.206794
Te	10.874316	-6.033971	-1.206794
Te	6.041287	-3.620382	-3.620382
O	13.245360	-1.250382	-1.250382
O	8.412330	1.250382	-3.576795
O	10.919788	-1.250382	-3.576795
O	10.828845	1.163206	-1.163206
O	15.752817	1.250382	-1.250382
O	10.828845	3.663970	-3.663970
O	13.336302	3.663970	-1.163206
O	13.336302	1.163206	-3.663970
Sc	9.666059	0.000000	0.000000
Sc	12.082574	-2.413588	-2.413588
Te	8.457801	-1.206794	-3.620382
Te	13.290831	1.206794	-1.206794
Te	15.707346	-1.206794	-1.206794
Te	10.874316	1.206794	-3.620382
O	3.579301	-6.077559	-6.077559
O	-1.253729	-3.576795	-8.403971
O	1.253729	-6.077559	-8.403971
O	1.162786	-3.663970	-5.990383
O	6.086758	-3.576795	-6.077559
O	1.162786	-1.163206	-8.491147
O	3.670243	-1.163206	-5.990383
O	3.670243	-3.663970	-8.491147
Sc	0.000000	-4.827177	-4.827177
Sc	2.416515	-7.240765	-7.240765
Te	-1.208257	-6.033971	-8.447559
Te	3.624772	-3.620382	-6.033971
Te	6.041287	-6.033971	-6.033971
Te	1.208257	-3.620382	-8.447559
O	8.412330	-1.250382	-6.077559
O	3.579301	1.250382	-8.403971
O	6.086758	-1.250382	-8.403971
O	5.995815	1.163206	-5.990383
O	10.919788	1.250382	-6.077559
O	5.995815	3.663970	-8.491147
O	8.503273	3.663970	-5.990383
O	8.503273	1.163206	-8.491147
Sc	4.833029	0.000000	-4.827177
Sc	7.249544	-2.413588	-7.240765
Te	3.624772	-1.206794	-8.447559
Te	8.457801	1.206794	-6.033971
Te	10.874316	-1.206794	-6.033971
Te	6.041287	1.206794	-8.447559
