40

Ba	2.314014	2.314014	2.314014
Co	0.000000	0.000000	0.000000
O	0.000000	2.314014	2.314014
O	2.314014	0.000000	2.314014
O	2.314014	2.314014	0.000000
Ba	2.314014	2.314014	6.942043
Co	0.000000	0.000000	4.628029
O	0.000000	2.314014	6.942043
O	2.314014	0.000000	6.942043
O	2.314014	2.314014	4.628029
Ba	2.314014	6.942043	2.314014
Co	0.000000	4.628029	0.000000
O	0.000000	6.942043	2.314014
O	2.314014	4.628029	2.314014
O	2.314014	6.942043	0.000000
Ba	2.314014	6.942043	6.942043
Co	0.000000	4.628029	4.628029
O	0.000000	6.942043	6.942043
O	2.314014	4.628029	6.942043
O	2.314014	6.942043	4.628029
Ba	6.942043	2.314014	2.314014
Co	4.628029	0.000000	0.000000
O	4.628029	2.314014	2.314014
O	6.942043	0.000000	2.314014
O	6.942043	2.314014	0.000000
Ba	6.942043	2.314014	6.942043
Co	4.628029	0.000000	4.628029
O	4.628029	2.314014	6.942043
O	6.942043	0.000000	6.942043
O	6.942043	2.314014	4.628029
Ba	6.942043	6.942043	2.314014
Co	4.628029	4.628029	0.000000
O	4.628029	6.942043	2.314014
O	6.942043	4.628029	2.314014
O	6.942043	6.942043	0.000000
Ba	6.942043	6.942043	6.942043
Co	4.628029	4.628029	4.628029
O	4.628029	6.942043	6.942043
O	6.942043	4.628029	6.942043
O	6.942043	6.942043	4.628029
