40

Ba	2.312054	2.312054	2.312054
Co	0.000000	0.000000	0.000000
O	0.000000	2.312054	2.312054
O	2.312054	0.000000	2.312054
O	2.312054	2.312054	0.000000
Ba	2.312054	2.312054	6.936162
Co	0.000000	0.000000	4.624108
O	0.000000	2.312054	6.936162
O	2.312054	0.000000	6.936162
O	2.312054	2.312054	4.624108
Ba	2.312054	6.936162	2.312054
Co	0.000000	4.624108	0.000000
O	0.000000	6.936162	2.312054
O	2.312054	4.624108	2.312054
O	2.312054	6.936162	0.000000
Ba	2.312054	6.936162	6.936162
Co	0.000000	4.624108	4.624108
O	0.000000	6.936162	6.936162
O	2.312054	4.624108	6.936162
O	2.312054	6.936162	4.624108
Ba	6.936162	2.312054	2.312054
Co	4.624108	0.000000	0.000000
O	4.624108	2.312054	2.312054
O	6.936162	0.000000	2.312054
O	6.936162	2.312054	0.000000
Ba	6.936162	2.312054	6.936162
Co	4.624108	0.000000	4.624108
O	4.624108	2.312054	6.936162
O	6.936162	0.000000	6.936162
O	6.936162	2.312054	4.624108
Ba	6.936162	6.936162	2.312054
Co	4.624108	4.624108	0.000000
O	4.624108	6.936162	2.312054
O	6.936162	4.624108	2.312054
O	6.936162	6.936162	0.000000
Ba	6.936162	6.936162	6.936162
Co	4.624108	4.624108	4.624108
O	4.624108	6.936162	6.936162
O	6.936162	4.624108	6.936162
O	6.936162	6.936162	4.624108
