112

Fe	2.105600	-2.105600	0.000000
Fe	4.211200	0.000000	0.000000
Fe	0.000000	2.105600	-2.105600
Fe	2.105600	0.000000	-2.105600
Ge	1.052800	-3.158400	-3.158400
Ge	3.158400	3.158400	-1.052800
O	-0.020660	-0.020660	-2.084939
O	2.084939	-2.126260	-2.126260
O	-2.126260	0.020660	-4.190539
O	0.020660	-2.126260	-4.190539
O	4.190539	2.126260	-0.020660
O	6.337460	-0.020660	-0.020660
O	2.126260	2.126260	-2.084939
O	4.231860	0.020660	-2.126260
Fe	6.316800	2.105600	0.000000
Fe	8.422399	4.211200	0.000000
Fe	4.211200	6.316800	-2.105600
Fe	6.316800	4.211200	-2.105600
Ge	5.264000	1.052800	-3.158400
Ge	7.369599	7.369599	-1.052800
O	4.190539	4.190539	-2.084939
O	6.296139	2.084939	-2.126260
O	2.084939	4.231860	-4.190539
O	4.231860	2.084939	-4.190539
O	8.401739	6.337460	-0.020660
O	10.548660	4.190539	-0.020660
O	6.337460	6.337460	-2.084939
O	8.443060	4.231860	-2.126260
Fe	-2.105600	-2.105600	-4.211200
Fe	0.000000	0.000000	-4.211200
Fe	-4.211200	2.105600	-6.316800
Fe	-2.105600	0.000000	-6.316800
Ge	-3.158400	-3.158400	-7.369599
Ge	-1.052800	3.158400	-5.264000
O	-4.231860	-0.020660	-6.296139
O	-2.126260	-2.126260	-6.337460
O	-6.337460	0.020660	-8.401739
O	-4.190539	-2.126260	-8.401739
O	-0.020660	2.126260	-4.231860
O	2.126260	-0.020660	-4.231860
O	-2.084939	2.126260	-6.296139
O	0.020660	0.020660	-6.337460
Fe	2.105600	2.105600	-4.211200
Fe	4.211200	4.211200	-4.211200
Fe	0.000000	6.316800	-6.316800
Fe	2.105600	4.211200	-6.316800
Ge	1.052800	1.052800	-7.369599
Ge	3.158400	7.369599	-5.264000
O	-0.020660	4.190539	-6.296139
O	2.084939	2.084939	-6.337460
O	-2.126260	4.231860	-8.401739
O	0.020660	2.084939	-8.401739
O	4.190539	6.337460	-4.231860
O	6.337460	4.190539	-4.231860
O	2.126260	6.337460	-6.296139
O	4.231860	4.231860	-6.337460
Fe	6.316800	-6.316800	0.000000
Fe	8.422399	-4.211200	0.000000
Fe	4.211200	-2.105600	-2.105600
Fe	6.316800	-4.211200	-2.105600
Ge	5.264000	-7.369599	-3.158400
Ge	7.369599	-1.052800	-1.052800
O	4.190539	-4.231860	-2.084939
O	6.296139	-6.337460	-2.126260
O	2.084939	-4.190539	-4.190539
O	4.231860	-6.337460	-4.190539
O	8.401739	-2.084939	-0.020660
O	10.548660	-4.231860	-0.020660
O	6.337460	-2.084939	-2.084939
O	8.443060	-4.190539	-2.126260
Fe	10.527999	-2.105600	0.000000
Fe	12.633599	0.000000	0.000000
Fe	8.422399	2.105600	-2.105600
Fe	10.527999	0.000000	-2.105600
Ge	9.475199	-3.158400	-3.158400
Ge	11.580799	3.158400	-1.052800
O	8.401739	-0.020660	-2.084939
O	10.507339	-2.126260	-2.126260
O	6.296139	0.020660	-4.190539
O	8.443060	-2.126260	-4.190539
O	12.612939	2.126260	-0.020660
O	14.759859	-0.020660	-0.020660
O	10.548660	2.126260	-2.084939
O	12.654259	0.020660	-2.126260
Fe	2.105600	-6.316800	-4.211200
Fe	4.211200	-4.211200	-4.211200
Fe	0.000000	-2.105600	-6.316800
Fe	2.105600	-4.211200	-6.316800
Ge	1.052800	-7.369599	-7.369599
Ge	3.158400	-1.052800	-5.264000
O	-0.020660	-4.231860	-6.296139
O	2.084939	-6.337460	-6.337460
O	-2.126260	-4.190539	-8.401739
O	0.020660	-6.337460	-8.401739
O	4.190539	-2.084939	-4.231860
O	6.337460	-4.231860	-4.231860
O	2.126260	-2.084939	-6.296139
O	4.231860	-4.190539	-6.337460
Fe	6.316800	-2.105600	-4.211200
Fe	8.422399	0.000000	-4.211200
Fe	4.211200	2.105600	-6.316800
Fe	6.316800	0.000000	-6.316800
Ge	5.264000	-3.158400	-7.369599
Ge	7.369599	3.158400	-5.264000
O	4.190539	-0.020660	-6.296139
O	6.296139	-2.126260	-6.337460
O	2.084939	0.020660	-8.401739
O	4.231860	-2.126260	-8.401739
O	8.401739	2.126260	-4.231860
O	10.548660	-0.020660	-4.231860
O	6.337460	2.126260	-6.296139
O	8.443060	0.020660	-6.337460
