40

O	0.000000	1.984366	1.984366
O	1.984366	0.000000	1.984366
O	1.984366	1.984366	0.000000
Os	0.000000	0.000000	0.000000
Pd	1.984366	1.984366	1.984366
O	0.000000	1.984366	5.953099
O	1.984366	0.000000	5.953099
O	1.984366	1.984366	3.968732
Os	0.000000	0.000000	3.968732
Pd	1.984366	1.984366	5.953099
O	0.000000	5.953099	1.984366
O	1.984366	3.968732	1.984366
O	1.984366	5.953099	0.000000
Os	0.000000	3.968732	0.000000
Pd	1.984366	5.953099	1.984366
O	0.000000	5.953099	5.953099
O	1.984366	3.968732	5.953099
O	1.984366	5.953099	3.968732
Os	0.000000	3.968732	3.968732
Pd	1.984366	5.953099	5.953099
O	3.968732	1.984366	1.984366
O	5.953099	0.000000	1.984366
O	5.953099	1.984366	0.000000
Os	3.968732	0.000000	0.000000
Pd	5.953099	1.984366	1.984366
O	3.968732	1.984366	5.953099
O	5.953099	0.000000	5.953099
O	5.953099	1.984366	3.968732
Os	3.968732	0.000000	3.968732
Pd	5.953099	1.984366	5.953099
O	3.968732	5.953099	1.984366
O	5.953099	3.968732	1.984366
O	5.953099	5.953099	0.000000
Os	3.968732	3.968732	0.000000
Pd	5.953099	5.953099	1.984366
O	3.968732	5.953099	5.953099
O	5.953099	3.968732	5.953099
O	5.953099	5.953099	3.968732
Os	3.968732	3.968732	3.968732
Pd	5.953099	5.953099	5.953099
