112

Fe	0.000000	0.000000	0.000000
Fe	2.169809	-2.182359	-2.182359
O	3.286709	-1.052667	-1.052667
O	-1.052910	1.052667	-3.312051
O	1.052910	-1.052667	-3.312051
O	1.116900	1.129692	-1.129692
O	5.392528	1.052667	-1.052667
O	1.116900	3.235027	-3.235027
O	3.222719	3.235027	-1.129692
O	3.222719	1.129692	-3.235027
Ta	-1.084905	-1.091180	-3.273539
Ta	3.254714	1.091180	-1.091180
Ta	5.424523	-1.091180	-1.091180
Ta	1.084905	1.091180	-3.273539
Fe	4.339619	4.364719	0.000000
Fe	6.509428	2.182359	-2.182359
O	7.626327	3.312051	-1.052667
O	3.286709	5.417386	-3.312051
O	5.392528	3.312051	-3.312051
O	5.456518	5.494411	-1.129692
O	9.732147	5.417386	-1.052667
O	5.456518	7.599745	-3.235027
O	7.562338	7.599745	-1.129692
O	7.562338	5.494411	-3.235027
Ta	3.254714	3.273539	-3.273539
Ta	7.594332	5.455898	-1.091180
Ta	9.764142	3.273539	-1.091180
Ta	5.424523	5.455898	-3.273539
Fe	-4.339619	0.000000	-4.364719
Fe	-2.169809	-2.182359	-6.547078
O	-1.052910	-1.052667	-5.417386
O	-5.392528	1.052667	-7.676770
O	-3.286709	-1.052667	-7.676770
O	-3.222719	1.129692	-5.494411
O	1.052910	1.052667	-5.417386
O	-3.222719	3.235027	-7.599745
O	-1.116900	3.235027	-5.494411
O	-1.116900	1.129692	-7.599745
Ta	-5.424523	-1.091180	-7.638258
Ta	-1.084905	1.091180	-5.455898
Ta	1.084905	-1.091180	-5.455898
Ta	-3.254714	1.091180	-7.638258
Fe	0.000000	4.364719	-4.364719
Fe	2.169809	2.182359	-6.547078
O	3.286709	3.312051	-5.417386
O	-1.052910	5.417386	-7.676770
O	1.052910	3.312051	-7.676770
O	1.116900	5.494411	-5.494411
O	5.392528	5.417386	-5.417386
O	1.116900	7.599745	-7.599745
O	3.222719	7.599745	-5.494411
O	3.222719	5.494411	-7.599745
Ta	-1.084905	3.273539	-7.638258
Ta	3.254714	5.455898	-5.455898
Ta	5.424523	3.273539	-5.455898
Ta	1.084905	5.455898	-7.638258
Fe	4.339619	-4.364719	0.000000
Fe	6.509428	-6.547078	-2.182359
O	7.626327	-5.417386	-1.052667
O	3.286709	-3.312051	-3.312051
O	5.392528	-5.417386	-3.312051
O	5.456518	-3.235027	-1.129692
O	9.732147	-3.312051	-1.052667
O	5.456518	-1.129692	-3.235027
O	7.562338	-1.129692	-1.129692
O	7.562338	-3.235027	-3.235027
Ta	3.254714	-5.455898	-3.273539
Ta	7.594332	-3.273539	-1.091180
Ta	9.764142	-5.455898	-1.091180
Ta	5.424523	-3.273539	-3.273539
Fe	8.679237	0.000000	0.000000
Fe	10.849046	-2.182359	-2.182359
O	11.965946	-1.052667	-1.052667
O	7.626327	1.052667	-3.312051
O	9.732147	-1.052667	-3.312051
O	9.796137	1.129692	-1.129692
O	14.071765	1.052667	-1.052667
O	9.796137	3.235027	-3.235027
O	11.901956	3.235027	-1.129692
O	11.901956	1.129692	-3.235027
Ta	7.594332	-1.091180	-3.273539
Ta	11.933951	1.091180	-1.091180
Ta	14.103760	-1.091180	-1.091180
Ta	9.764142	1.091180	-3.273539
Fe	0.000000	-4.364719	-4.364719
Fe	2.169809	-6.547078	-6.547078
O	3.286709	-5.417386	-5.417386
O	-1.052910	-3.312051	-7.676770
O	1.052910	-5.417386	-7.676770
O	1.116900	-3.235027	-5.494411
O	5.392528	-3.312051	-5.417386
O	1.116900	-1.129692	-7.599745
O	3.222719	-1.129692	-5.494411
O	3.222719	-3.235027	-7.599745
Ta	-1.084905	-5.455898	-7.638258
Ta	3.254714	-3.273539	-5.455898
Ta	5.424523	-5.455898	-5.455898
Ta	1.084905	-3.273539	-7.638258
Fe	4.339619	0.000000	-4.364719
Fe	6.509428	-2.182359	-6.547078
O	7.626327	-1.052667	-5.417386
O	3.286709	1.052667	-7.676770
O	5.392528	-1.052667	-7.676770
O	5.456518	1.129692	-5.494411
O	9.732147	1.052667	-5.417386
O	5.456518	3.235027	-7.599745
O	7.562338	3.235027	-5.494411
O	7.562338	1.129692	-7.599745
Ta	3.254714	-1.091180	-7.638258
Ta	7.594332	1.091180	-5.455898
Ta	9.764142	-1.091180	-5.455898
Ta	5.424523	1.091180	-7.638258
