40

O	2.052030	2.052030	0.000000
O	0.000000	2.052030	2.052030
O	2.052030	0.000000	2.052030
Pb_d	0.000000	0.000000	0.000000
Sc_sv	2.052030	2.052030	2.052030
O	2.052030	2.052030	4.104064
O	0.000000	2.052030	6.156094
O	2.052030	0.000000	6.156094
Pb_d	0.000000	0.000000	4.104064
Sc_sv	2.052030	2.052030	6.156094
O	2.052030	6.156094	0.000000
O	0.000000	6.156094	2.052030
O	2.052030	4.104064	2.052030
Pb_d	0.000000	4.104064	0.000000
Sc_sv	2.052030	6.156094	2.052030
O	2.052030	6.156094	4.104064
O	0.000000	6.156094	6.156094
O	2.052030	4.104064	6.156094
Pb_d	0.000000	4.104064	4.104064
Sc_sv	2.052030	6.156094	6.156094
O	6.156094	2.052030	0.000000
O	4.104064	2.052030	2.052030
O	6.156094	0.000000	2.052030
Pb_d	4.104064	0.000000	0.000000
Sc_sv	6.156094	2.052030	2.052030
O	6.156094	2.052030	4.104064
O	4.104064	2.052030	6.156094
O	6.156094	0.000000	6.156094
Pb_d	4.104064	0.000000	4.104064
Sc_sv	6.156094	2.052030	6.156094
O	6.156094	6.156094	0.000000
O	4.104064	6.156094	2.052030
O	6.156094	4.104064	2.052030
Pb_d	4.104064	4.104064	0.000000
Sc_sv	6.156094	6.156094	2.052030
O	6.156094	6.156094	4.104064
O	4.104064	6.156094	6.156094
O	6.156094	4.104064	6.156094
Pb_d	4.104064	4.104064	4.104064
Sc_sv	6.156094	6.156094	6.156094
