40

Ba	0.000000	0.000000	0.000000
Nd	2.285146	2.285146	2.285146
O	2.285146	2.285146	0.000000
O	2.285146	0.000000	2.285146
O	0.000000	2.285146	2.285146
Ba	0.000000	0.000000	4.570292
Nd	2.285146	2.285146	6.855439
O	2.285146	2.285146	4.570292
O	2.285146	0.000000	6.855439
O	0.000000	2.285146	6.855439
Ba	0.000000	4.570292	0.000000
Nd	2.285146	6.855439	2.285146
O	2.285146	6.855439	0.000000
O	2.285146	4.570292	2.285146
O	0.000000	6.855439	2.285146
Ba	0.000000	4.570292	4.570292
Nd	2.285146	6.855439	6.855439
O	2.285146	6.855439	4.570292
O	2.285146	4.570292	6.855439
O	0.000000	6.855439	6.855439
Ba	4.570292	0.000000	0.000000
Nd	6.855439	2.285146	2.285146
O	6.855439	2.285146	0.000000
O	6.855439	0.000000	2.285146
O	4.570292	2.285146	2.285146
Ba	4.570292	0.000000	4.570292
Nd	6.855439	2.285146	6.855439
O	6.855439	2.285146	4.570292
O	6.855439	0.000000	6.855439
O	4.570292	2.285146	6.855439
Ba	4.570292	4.570292	0.000000
Nd	6.855439	6.855439	2.285146
O	6.855439	6.855439	0.000000
O	6.855439	4.570292	2.285146
O	4.570292	6.855439	2.285146
Ba	4.570292	4.570292	4.570292
Nd	6.855439	6.855439	6.855439
O	6.855439	6.855439	4.570292
O	6.855439	4.570292	6.855439
O	4.570292	6.855439	6.855439
