40

Al	1.844450	1.844450	1.844450
O	1.844450	1.844450	0.000000
O	0.000000	1.844450	1.844450
O	1.844450	0.000000	1.844450
Tb_3	0.000000	0.000000	0.000000
Al	1.844450	1.844450	5.533359
O	1.844450	1.844450	3.688909
O	0.000000	1.844450	5.533359
O	1.844450	0.000000	5.533359
Tb_3	0.000000	0.000000	3.688909
Al	1.844450	5.533359	1.844450
O	1.844450	5.533359	0.000000
O	0.000000	5.533359	1.844450
O	1.844450	3.688909	1.844450
Tb_3	0.000000	3.688909	0.000000
Al	1.844450	5.533359	5.533359
O	1.844450	5.533359	3.688909
O	0.000000	5.533359	5.533359
O	1.844450	3.688909	5.533359
Tb_3	0.000000	3.688909	3.688909
Al	5.533359	1.844450	1.844450
O	5.533359	1.844450	0.000000
O	3.688909	1.844450	1.844450
O	5.533359	0.000000	1.844450
Tb_3	3.688909	0.000000	0.000000
Al	5.533359	1.844450	5.533359
O	5.533359	1.844450	3.688909
O	3.688909	1.844450	5.533359
O	5.533359	0.000000	5.533359
Tb_3	3.688909	0.000000	3.688909
Al	5.533359	5.533359	1.844450
O	5.533359	5.533359	0.000000
O	3.688909	5.533359	1.844450
O	5.533359	3.688909	1.844450
Tb_3	3.688909	3.688909	0.000000
Al	5.533359	5.533359	5.533359
O	5.533359	5.533359	3.688909
O	3.688909	5.533359	5.533359
O	5.533359	3.688909	5.533359
Tb_3	3.688909	3.688909	3.688909
