40

Ca	0.000000	0.000000	0.000000
O	0.000000	1.984557	1.984557
O	1.984557	0.000000	1.984557
O	1.984557	1.984557	0.000000
Os	1.984557	1.984557	1.984557
Ca	0.000000	0.000000	3.969115
O	0.000000	1.984557	5.953672
O	1.984557	0.000000	5.953672
O	1.984557	1.984557	3.969115
Os	1.984557	1.984557	5.953672
Ca	0.000000	3.969115	0.000000
O	0.000000	5.953672	1.984557
O	1.984557	3.969115	1.984557
O	1.984557	5.953672	0.000000
Os	1.984557	5.953672	1.984557
Ca	0.000000	3.969115	3.969115
O	0.000000	5.953672	5.953672
O	1.984557	3.969115	5.953672
O	1.984557	5.953672	3.969115
Os	1.984557	5.953672	5.953672
Ca	3.969115	0.000000	0.000000
O	3.969115	1.984557	1.984557
O	5.953672	0.000000	1.984557
O	5.953672	1.984557	0.000000
Os	5.953672	1.984557	1.984557
Ca	3.969115	0.000000	3.969115
O	3.969115	1.984557	5.953672
O	5.953672	0.000000	5.953672
O	5.953672	1.984557	3.969115
Os	5.953672	1.984557	5.953672
Ca	3.969115	3.969115	0.000000
O	3.969115	5.953672	1.984557
O	5.953672	3.969115	1.984557
O	5.953672	5.953672	0.000000
Os	5.953672	5.953672	1.984557
Ca	3.969115	3.969115	3.969115
O	3.969115	5.953672	5.953672
O	5.953672	3.969115	5.953672
O	5.953672	5.953672	3.969115
Os	5.953672	5.953672	5.953672
