40

Ag	0.000000	0.000000	0.000000
F	0.000000	1.936639	1.936639
F	1.936639	0.000000	1.936639
F	1.936639	1.936639	0.000000
O	1.936639	1.936639	1.936639
Ag	0.000000	0.000000	3.873278
F	0.000000	1.936639	5.809917
F	1.936639	0.000000	5.809917
F	1.936639	1.936639	3.873278
O	1.936639	1.936639	5.809917
Ag	0.000000	3.873278	0.000000
F	0.000000	5.809917	1.936639
F	1.936639	3.873278	1.936639
F	1.936639	5.809917	0.000000
O	1.936639	5.809917	1.936639
Ag	0.000000	3.873278	3.873278
F	0.000000	5.809917	5.809917
F	1.936639	3.873278	5.809917
F	1.936639	5.809917	3.873278
O	1.936639	5.809917	5.809917
Ag	3.873278	0.000000	0.000000
F	3.873278	1.936639	1.936639
F	5.809917	0.000000	1.936639
F	5.809917	1.936639	0.000000
O	5.809917	1.936639	1.936639
Ag	3.873278	0.000000	3.873278
F	3.873278	1.936639	5.809917
F	5.809917	0.000000	5.809917
F	5.809917	1.936639	3.873278
O	5.809917	1.936639	5.809917
Ag	3.873278	3.873278	0.000000
F	3.873278	5.809917	1.936639
F	5.809917	3.873278	1.936639
F	5.809917	5.809917	0.000000
O	5.809917	5.809917	1.936639
Ag	3.873278	3.873278	3.873278
F	3.873278	5.809917	5.809917
F	5.809917	3.873278	5.809917
F	5.809917	5.809917	3.873278
O	5.809917	5.809917	5.809917
