40

Al	0.000000	0.000000	0.000000
Be	1.700611	1.700611	1.700611
O	0.000000	1.700611	1.700611
O	1.700611	0.000000	1.700611
O	1.700611	1.700611	0.000000
Al	0.000000	0.000000	3.401221
Be	1.700611	1.700611	5.101832
O	0.000000	1.700611	5.101832
O	1.700611	0.000000	5.101832
O	1.700611	1.700611	3.401221
Al	0.000000	3.401221	0.000000
Be	1.700611	5.101832	1.700611
O	0.000000	5.101832	1.700611
O	1.700611	3.401221	1.700611
O	1.700611	5.101832	0.000000
Al	0.000000	3.401221	3.401221
Be	1.700611	5.101832	5.101832
O	0.000000	5.101832	5.101832
O	1.700611	3.401221	5.101832
O	1.700611	5.101832	3.401221
Al	3.401221	0.000000	0.000000
Be	5.101832	1.700611	1.700611
O	3.401221	1.700611	1.700611
O	5.101832	0.000000	1.700611
O	5.101832	1.700611	0.000000
Al	3.401221	0.000000	3.401221
Be	5.101832	1.700611	5.101832
O	3.401221	1.700611	5.101832
O	5.101832	0.000000	5.101832
O	5.101832	1.700611	3.401221
Al	3.401221	3.401221	0.000000
Be	5.101832	5.101832	1.700611
O	3.401221	5.101832	1.700611
O	5.101832	3.401221	1.700611
O	5.101832	5.101832	0.000000
Al	3.401221	3.401221	3.401221
Be	5.101832	5.101832	5.101832
O	3.401221	5.101832	5.101832
O	5.101832	3.401221	5.101832
O	5.101832	5.101832	3.401221
