112

La	0.000000	0.000000	0.000000
La	2.437388	-2.438243	-2.438243
Na	-1.218694	-1.219121	-3.657364
Na	3.656083	1.219121	-1.219121
Na	6.093471	-1.219121	-1.219121
Na	1.218694	1.219121	-3.657364
O	3.690526	-1.183775	-1.183775
O	-1.184251	1.183775	-3.692710
O	1.184251	-1.183775	-3.692710
O	1.253137	1.254468	-1.254468
O	6.059028	1.183775	-1.183775
O	1.253137	3.622017	-3.622017
O	3.621639	3.622017	-1.254468
O	3.621639	1.254468	-3.622017
La	4.874777	4.876485	0.000000
La	7.312165	2.438243	-2.438243
Na	3.656083	3.657364	-3.657364
Na	8.530859	6.095606	-1.219121
Na	10.968248	3.657364	-1.219121
Na	6.093471	6.095606	-3.657364
O	8.565302	3.692710	-1.183775
O	3.690526	6.060260	-3.692710
O	6.059028	3.692710	-3.692710
O	6.127914	6.130953	-1.254468
O	10.933804	6.060260	-1.183775
O	6.127914	8.498502	-3.622017
O	8.496416	8.498502	-1.254468
O	8.496416	6.130953	-3.622017
La	-4.874777	0.000000	-4.876485
La	-2.437388	-2.438243	-7.314728
Na	-6.093471	-1.219121	-8.533849
Na	-1.218694	1.219121	-6.095606
Na	1.218694	-1.219121	-6.095606
Na	-3.656083	1.219121	-8.533849
O	-1.184251	-1.183775	-6.060260
O	-6.059028	1.183775	-8.569195
O	-3.690526	-1.183775	-8.569195
O	-3.621639	1.254468	-6.130953
O	1.184251	1.183775	-6.060260
O	-3.621639	3.622017	-8.498502
O	-1.253137	3.622017	-6.130953
O	-1.253137	1.254468	-8.498502
La	0.000000	4.876485	-4.876485
La	2.437388	2.438243	-7.314728
Na	-1.218694	3.657364	-8.533849
Na	3.656083	6.095606	-6.095606
Na	6.093471	3.657364	-6.095606
Na	1.218694	6.095606	-8.533849
O	3.690526	3.692710	-6.060260
O	-1.184251	6.060260	-8.569195
O	1.184251	3.692710	-8.569195
O	1.253137	6.130953	-6.130953
O	6.059028	6.060260	-6.060260
O	1.253137	8.498502	-8.498502
O	3.621639	8.498502	-6.130953
O	3.621639	6.130953	-8.498502
La	4.874777	-4.876485	0.000000
La	7.312165	-7.314728	-2.438243
Na	3.656083	-6.095606	-3.657364
Na	8.530859	-3.657364	-1.219121
Na	10.968248	-6.095606	-1.219121
Na	6.093471	-3.657364	-3.657364
O	8.565302	-6.060260	-1.183775
O	3.690526	-3.692710	-3.692710
O	6.059028	-6.060260	-3.692710
O	6.127914	-3.622017	-1.254468
O	10.933804	-3.692710	-1.183775
O	6.127914	-1.254468	-3.622017
O	8.496416	-1.254468	-1.254468
O	8.496416	-3.622017	-3.622017
La	9.749553	0.000000	0.000000
La	12.186942	-2.438243	-2.438243
Na	8.530859	-1.219121	-3.657364
Na	13.405636	1.219121	-1.219121
Na	15.843024	-1.219121	-1.219121
Na	10.968248	1.219121	-3.657364
O	13.440079	-1.183775	-1.183775
O	8.565303	1.183775	-3.692710
O	10.933804	-1.183775	-3.692710
O	11.002691	1.254468	-1.254468
O	15.808581	1.183775	-1.183775
O	11.002691	3.622017	-3.622017
O	13.371193	3.622017	-1.254468
O	13.371193	1.254468	-3.622017
La	0.000000	-4.876485	-4.876485
La	2.437388	-7.314728	-7.314728
Na	-1.218694	-6.095606	-8.533849
Na	3.656083	-3.657364	-6.095606
Na	6.093471	-6.095606	-6.095606
Na	1.218694	-3.657364	-8.533849
O	3.690526	-6.060260	-6.060260
O	-1.184251	-3.692710	-8.569195
O	1.184251	-6.060260	-8.569195
O	1.253137	-3.622017	-6.130953
O	6.059028	-3.692710	-6.060260
O	1.253137	-1.254468	-8.498502
O	3.621639	-1.254468	-6.130953
O	3.621639	-3.622017	-8.498502
La	4.874777	0.000000	-4.876485
La	7.312165	-2.438243	-7.314728
Na	3.656083	-1.219121	-8.533849
Na	8.530859	1.219121	-6.095606
Na	10.968248	-1.219121	-6.095606
Na	6.093471	1.219121	-8.533849
O	8.565302	-1.183775	-6.060260
O	3.690526	1.183775	-8.569195
O	6.059028	-1.183775	-8.569195
O	6.127914	1.254468	-6.130953
O	10.933804	1.183775	-6.060260
O	6.127914	3.622017	-8.498502
O	8.496416	3.622017	-6.130953
O	8.496416	1.254468	-8.498502
