112

O	5.101990	3.607652	8.836905
O	1.802925	1.274860	5.846990
O	2.589343	3.499187	4.484873
O	4.162179	1.274860	4.484873
O	4.315571	1.383325	7.474789
O	2.742735	3.607652	7.474789
O	1.802925	1.274860	3.122757
O	5.101990	3.607652	6.112673
Mg	0.863114	0.610314	1.494958
Mg	6.041800	4.272198	10.464704
Ga	3.452457	2.441256	2.989916
Ga	3.452457	2.441256	5.979831
Ga	0.863114	2.441256	4.484873
Ga	2.589343	0.000000	4.484873
O	5.101990	3.607652	14.816736
O	1.802925	1.274860	11.826821
O	2.589343	3.499187	10.464704
O	4.162179	1.274860	10.464704
O	4.315571	1.383325	13.454620
O	2.742735	3.607652	13.454620
O	1.802925	1.274860	9.102588
O	5.101990	3.607652	12.092504
Mg	0.863114	0.610314	7.474789
Mg	6.041800	4.272198	16.444536
Ga	3.452457	2.441256	8.969747
Ga	3.452457	2.441256	11.959662
Ga	0.863114	2.441256	10.464704
Ga	2.589343	0.000000	10.464704
O	6.828218	8.490163	11.826821
O	3.529153	6.157372	8.836905
O	4.315571	8.381699	7.474789
O	5.888408	6.157372	7.474789
O	6.041800	6.265836	10.464705
O	4.468963	8.490163	10.464705
O	3.529153	6.157372	6.112672
O	6.828218	8.490163	9.102588
Mg	2.589343	5.492826	4.484873
Mg	7.768029	9.154709	13.454620
Ga	5.178686	7.323768	5.979831
Ga	5.178686	7.323768	8.969747
Ga	2.589343	7.323768	7.474789
Ga	4.315571	4.882512	7.474789
O	6.828218	8.490163	17.806652
O	3.529153	6.157372	14.816736
O	4.315571	8.381699	13.454620
O	5.888408	6.157372	13.454620
O	6.041800	6.265836	16.444536
O	4.468963	8.490163	16.444536
O	3.529153	6.157372	12.092504
O	6.828218	8.490163	15.082419
Mg	2.589343	5.492826	10.464704
Mg	7.768029	9.154709	19.434451
Ga	5.178686	7.323768	11.959662
Ga	5.178686	7.323768	14.949578
Ga	2.589343	7.323768	13.454620
Ga	4.315571	4.882512	13.454620
O	10.280675	3.607652	11.826821
O	6.981610	1.274860	8.836905
O	7.768028	3.499187	7.474789
O	9.340865	1.274860	7.474789
O	9.494257	1.383325	10.464705
O	7.921421	3.607652	10.464705
O	6.981610	1.274860	6.112672
O	10.280675	3.607652	9.102588
Mg	6.041800	0.610314	4.484873
Mg	11.220486	4.272198	13.454620
Ga	8.631143	2.441256	5.979831
Ga	8.631143	2.441256	8.969747
Ga	6.041800	2.441256	7.474789
Ga	7.768029	0.000000	7.474789
O	10.280675	3.607652	17.806652
O	6.981610	1.274860	14.816736
O	7.768028	3.499187	13.454620
O	9.340865	1.274860	13.454620
O	9.494257	1.383325	16.444536
O	7.921421	3.607652	16.444536
O	6.981610	1.274860	12.092504
O	10.280675	3.607652	15.082419
Mg	6.041800	0.610314	10.464704
Mg	11.220486	4.272198	19.434451
Ga	8.631143	2.441256	11.959662
Ga	8.631143	2.441256	14.949578
Ga	6.041800	2.441256	13.454620
Ga	7.768029	0.000000	13.454620
O	12.006904	8.490163	14.816736
O	8.707839	6.157372	11.826821
O	9.494257	8.381699	10.464704
O	11.067094	6.157372	10.464704
O	11.220486	6.265836	13.454620
O	9.647649	8.490163	13.454620
O	8.707839	6.157372	9.102588
O	12.006904	8.490163	12.092504
Mg	7.768029	5.492826	7.474789
Mg	12.946714	9.154709	16.444536
Ga	10.357371	7.323768	8.969747
Ga	10.357371	7.323768	11.959662
Ga	7.768029	7.323768	10.464704
Ga	9.494257	4.882512	10.464704
O	12.006904	8.490163	20.796568
O	8.707839	6.157372	17.806652
O	9.494257	8.381699	16.444536
O	11.067094	6.157372	16.444536
O	11.220486	6.265836	19.434451
O	9.647649	8.490163	19.434451
O	8.707839	6.157372	15.082419
O	12.006904	8.490163	18.072335
Mg	7.768029	5.492826	13.454620
Mg	12.946714	9.154709	22.424367
Ga	10.357371	7.323768	14.949578
Ga	10.357371	7.323768	17.939493
Ga	7.768029	7.323768	16.444536
Ga	9.494257	4.882512	16.444536
