40

Be	1.788268	1.788268	1.788268
O	0.000000	1.788268	1.788268
O	1.788268	0.000000	1.788268
O	1.788268	1.788268	0.000000
Sb	0.000000	0.000000	0.000000
Be	1.788268	1.788268	5.364805
O	0.000000	1.788268	5.364805
O	1.788268	0.000000	5.364805
O	1.788268	1.788268	3.576537
Sb	0.000000	0.000000	3.576537
Be	1.788268	5.364805	1.788268
O	0.000000	5.364805	1.788268
O	1.788268	3.576537	1.788268
O	1.788268	5.364805	0.000000
Sb	0.000000	3.576537	0.000000
Be	1.788268	5.364805	5.364805
O	0.000000	5.364805	5.364805
O	1.788268	3.576537	5.364805
O	1.788268	5.364805	3.576537
Sb	0.000000	3.576537	3.576537
Be	5.364805	1.788268	1.788268
O	3.576537	1.788268	1.788268
O	5.364805	0.000000	1.788268
O	5.364805	1.788268	0.000000
Sb	3.576537	0.000000	0.000000
Be	5.364805	1.788268	5.364805
O	3.576537	1.788268	5.364805
O	5.364805	0.000000	5.364805
O	5.364805	1.788268	3.576537
Sb	3.576537	0.000000	3.576537
Be	5.364805	5.364805	1.788268
O	3.576537	5.364805	1.788268
O	5.364805	3.576537	1.788268
O	5.364805	5.364805	0.000000
Sb	3.576537	3.576537	0.000000
Be	5.364805	5.364805	5.364805
O	3.576537	5.364805	5.364805
O	5.364805	3.576537	5.364805
O	5.364805	5.364805	3.576537
Sb	3.576537	3.576537	3.576537
