40

O	0.000000	2.454381	2.454381
O	2.454381	0.000000	2.454381
O	2.454381	2.454381	0.000000
Se	0.000000	0.000000	0.000000
Sr	2.454381	2.454381	2.454381
O	0.000000	2.454381	7.363142
O	2.454381	0.000000	7.363142
O	2.454381	2.454381	4.908761
Se	0.000000	0.000000	4.908761
Sr	2.454381	2.454381	7.363142
O	0.000000	7.363142	2.454381
O	2.454381	4.908761	2.454381
O	2.454381	7.363142	0.000000
Se	0.000000	4.908761	0.000000
Sr	2.454381	7.363142	2.454381
O	0.000000	7.363142	7.363142
O	2.454381	4.908761	7.363142
O	2.454381	7.363142	4.908761
Se	0.000000	4.908761	4.908761
Sr	2.454381	7.363142	7.363142
O	4.908761	2.454381	2.454381
O	7.363142	0.000000	2.454381
O	7.363142	2.454381	0.000000
Se	4.908761	0.000000	0.000000
Sr	7.363142	2.454381	2.454381
O	4.908761	2.454381	7.363142
O	7.363142	0.000000	7.363142
O	7.363142	2.454381	4.908761
Se	4.908761	0.000000	4.908761
Sr	7.363142	2.454381	7.363142
O	4.908761	7.363142	2.454381
O	7.363142	4.908761	2.454381
O	7.363142	7.363142	0.000000
Se	4.908761	4.908761	0.000000
Sr	7.363142	7.363142	2.454381
O	4.908761	7.363142	7.363142
O	7.363142	4.908761	7.363142
O	7.363142	7.363142	4.908761
Se	4.908761	4.908761	4.908761
Sr	7.363142	7.363142	7.363142
