176

O	5.199269	3.676438	9.005398
O	3.119562	2.205863	5.403239
O	3.970363	5.414374	11.133927
O	1.890655	3.943799	7.531767
O	6.428175	1.938503	11.133927
O	7.657082	5.414374	9.005398
O	2.741457	1.938503	9.005398
O	3.970363	5.414374	6.876870
O	6.428175	1.938503	6.876870
O	5.577374	3.943799	5.403239
O	0.661749	0.467927	5.403239
O	4.348468	0.467927	3.274711
O	4.348468	0.467927	7.531767
O	1.890655	3.943799	3.274711
Ti	1.039854	2.941151	1.801080
Ti	3.119562	0.000000	1.801080
Ti	0.000000	0.000000	3.602159
Ti	0.000000	0.000000	0.000000
Y	3.119562	0.000000	5.403239
Y	1.039854	2.941151	5.403239
Y	4.159415	2.941151	3.602159
Y	4.159415	2.941151	7.204319
O	5.199269	3.676438	16.209717
O	3.119562	2.205863	12.607558
O	3.970363	5.414374	18.338245
O	1.890655	3.943799	14.736086
O	6.428175	1.938503	18.338245
O	7.657082	5.414374	16.209717
O	2.741457	1.938503	16.209717
O	3.970363	5.414374	14.081189
O	6.428175	1.938503	14.081189
O	5.577374	3.943799	12.607558
O	0.661749	0.467927	12.607558
O	4.348468	0.467927	10.479030
O	4.348468	0.467927	14.736086
O	1.890655	3.943799	10.479030
Ti	1.039854	2.941151	9.005398
Ti	3.119562	0.000000	9.005398
Ti	0.000000	0.000000	10.806478
Ti	0.000000	0.000000	7.204319
Y	3.119562	0.000000	12.607558
Y	1.039854	2.941151	12.607558
Y	4.159415	2.941151	10.806478
Y	4.159415	2.941151	14.408637
O	7.278977	9.558740	12.607558
O	5.199269	8.088165	9.005398
O	6.050071	11.296676	14.736086
O	3.970363	9.826101	11.133927
O	8.507883	7.820804	14.736086
O	9.736789	11.296676	12.607558
O	4.821164	7.820804	12.607558
O	6.050071	11.296676	10.479030
O	8.507883	7.820804	10.479030
O	7.657082	9.826101	9.005398
O	2.741457	6.350229	9.005398
O	6.428175	6.350229	6.876870
O	6.428175	6.350229	11.133927
O	3.970363	9.826101	6.876870
Ti	3.119562	8.823452	5.403239
Ti	5.199269	5.882302	5.403239
Ti	2.079708	5.882302	7.204319
Ti	2.079708	5.882302	3.602159
Y	5.199269	5.882302	9.005398
Y	3.119562	8.823452	9.005398
Y	6.239123	8.823452	7.204319
Y	6.239123	8.823452	10.806478
O	7.278977	9.558740	19.811876
O	5.199269	8.088165	16.209717
O	6.050071	11.296676	21.940405
O	3.970363	9.826101	18.338245
O	8.507883	7.820804	21.940405
O	9.736789	11.296676	19.811876
O	4.821164	7.820804	19.811876
O	6.050071	11.296676	17.683348
O	8.507883	7.820804	17.683348
O	7.657082	9.826101	16.209717
O	2.741457	6.350229	16.209717
O	6.428175	6.350229	14.081189
O	6.428175	6.350229	18.338245
O	3.970363	9.826101	14.081189
Ti	3.119562	8.823452	12.607558
Ti	5.199269	5.882302	12.607558
Ti	2.079708	5.882302	14.408637
Ti	2.079708	5.882302	10.806478
Y	5.199269	5.882302	16.209717
Y	3.119562	8.823452	16.209717
Y	6.239123	8.823452	14.408637
Y	6.239123	8.823452	18.010797
O	11.438392	3.676438	12.607558
O	9.358685	2.205863	9.005398
O	10.209486	5.414374	14.736086
O	8.129778	3.943799	11.133927
O	12.667298	1.938503	14.736086
O	13.896205	5.414374	12.607558
O	8.980580	1.938503	12.607558
O	10.209486	5.414374	10.479030
O	12.667298	1.938503	10.479030
O	11.816497	3.943799	9.005398
O	6.900872	0.467927	9.005398
O	10.587591	0.467927	6.876870
O	10.587591	0.467927	11.133927
O	8.129778	3.943799	6.876870
Ti	7.278977	2.941151	5.403239
Ti	9.358685	0.000000	5.403239
Ti	6.239123	0.000000	7.204319
Ti	6.239123	0.000000	3.602159
Y	9.358685	0.000000	9.005398
Y	7.278977	2.941151	9.005398
Y	10.398538	2.941151	7.204319
Y	10.398538	2.941151	10.806478
O	11.438392	3.676438	19.811876
O	9.358685	2.205863	16.209717
O	10.209486	5.414374	21.940405
O	8.129778	3.943799	18.338245
O	12.667298	1.938503	21.940405
O	13.896205	5.414374	19.811876
O	8.980580	1.938503	19.811876
O	10.209486	5.414374	17.683348
O	12.667298	1.938503	17.683348
O	11.816497	3.943799	16.209717
O	6.900872	0.467927	16.209717
O	10.587591	0.467927	14.081189
O	10.587591	0.467927	18.338245
O	8.129778	3.943799	14.081189
Ti	7.278977	2.941151	12.607558
Ti	9.358685	0.000000	12.607558
Ti	6.239123	0.000000	14.408637
Ti	6.239123	0.000000	10.806478
Y	9.358685	0.000000	16.209717
Y	7.278977	2.941151	16.209717
Y	10.398538	2.941151	14.408637
Y	10.398538	2.941151	18.010797
O	13.518100	9.558740	16.209717
O	11.438392	8.088165	12.607558
O	12.289194	11.296676	18.338245
O	10.209486	9.826101	14.736086
O	14.747006	7.820804	18.338245
O	15.975912	11.296676	16.209717
O	11.060287	7.820804	16.209717
O	12.289194	11.296676	14.081189
O	14.747006	7.820804	14.081189
O	13.896205	9.826101	12.607558
O	8.980580	6.350229	12.607558
O	12.667298	6.350229	10.479030
O	12.667298	6.350229	14.736086
O	10.209486	9.826101	10.479030
Ti	9.358685	8.823452	9.005398
Ti	11.438392	5.882302	9.005398
Ti	8.318831	5.882302	10.806478
Ti	8.318831	5.882302	7.204319
Y	11.438392	5.882302	12.607558
Y	9.358685	8.823452	12.607558
Y	12.478246	8.823452	10.806478
Y	12.478246	8.823452	14.408637
O	13.518100	9.558740	23.414036
O	11.438392	8.088165	19.811876
O	12.289194	11.296676	25.542564
O	10.209486	9.826101	21.940405
O	14.747006	7.820804	25.542564
O	15.975912	11.296676	23.414036
O	11.060287	7.820804	23.414036
O	12.289194	11.296676	21.285508
O	14.747006	7.820804	21.285508
O	13.896205	9.826101	19.811876
O	8.980580	6.350229	19.811876
O	12.667298	6.350229	17.683348
O	12.667298	6.350229	21.940405
O	10.209486	9.826101	17.683348
Ti	9.358685	8.823452	16.209717
Ti	11.438392	5.882302	16.209717
Ti	8.318831	5.882302	18.010797
Ti	8.318831	5.882302	14.408637
Y	11.438392	5.882302	19.811876
Y	9.358685	8.823452	19.811876
Y	12.478246	8.823452	18.010797
Y	12.478246	8.823452	21.612956
