40

O	0.000000	1.989697	1.989697
O	1.989697	0.000000	1.989697
O	1.989697	1.989697	0.000000
Pd	1.989697	1.989697	1.989697
Y	0.000000	0.000000	0.000000
O	0.000000	1.989697	5.969092
O	1.989697	0.000000	5.969092
O	1.989697	1.989697	3.979394
Pd	1.989697	1.989697	5.969092
Y	0.000000	0.000000	3.979394
O	0.000000	5.969092	1.989697
O	1.989697	3.979394	1.989697
O	1.989697	5.969092	0.000000
Pd	1.989697	5.969092	1.989697
Y	0.000000	3.979394	0.000000
O	0.000000	5.969092	5.969092
O	1.989697	3.979394	5.969092
O	1.989697	5.969092	3.979394
Pd	1.989697	5.969092	5.969092
Y	0.000000	3.979394	3.979394
O	3.979394	1.989697	1.989697
O	5.969092	0.000000	1.989697
O	5.969092	1.989697	0.000000
Pd	5.969092	1.989697	1.989697
Y	3.979394	0.000000	0.000000
O	3.979394	1.989697	5.969092
O	5.969092	0.000000	5.969092
O	5.969092	1.989697	3.979394
Pd	5.969092	1.989697	5.969092
Y	3.979394	0.000000	3.979394
O	3.979394	5.969092	1.989697
O	5.969092	3.979394	1.989697
O	5.969092	5.969092	0.000000
Pd	5.969092	5.969092	1.989697
Y	3.979394	3.979394	0.000000
O	3.979394	5.969092	5.969092
O	5.969092	3.979394	5.969092
O	5.969092	5.969092	3.979394
Pd	5.969092	5.969092	5.969092
Y	3.979394	3.979394	3.979394
