112

Li	0.000000	0.000000	0.000000
Li	2.153257	-2.153839	-2.153839
O	-0.986113	0.986109	-3.321569
O	3.320391	-0.986109	-0.986109
O	0.986113	-0.986109	-3.321569
O	1.167134	1.167730	-1.167730
O	5.292627	0.986109	-0.986109
O	1.167134	3.139948	-3.139948
O	3.139370	3.139948	-1.167730
O	3.139370	1.167730	-3.139948
Pd	-1.076623	-1.076919	-3.230758
Pd	1.076623	1.076919	-3.230758
Pd	3.229880	1.076919	-1.076919
Pd	5.383137	-1.076919	-1.076919
Li	4.306506	4.307682	0.000000
Li	6.459763	2.153843	-2.153839
O	3.320393	5.293791	-3.321569
O	7.626897	3.321573	-0.986109
O	5.292619	3.321573	-3.321569
O	5.473640	5.475412	-1.167730
O	9.599133	5.293791	-0.986109
O	5.473640	7.447630	-3.139948
O	7.445876	7.447630	-1.167730
O	7.445876	5.475412	-3.139948
Pd	3.229883	3.230762	-3.230758
Pd	5.383130	5.384601	-3.230758
Pd	7.536387	5.384601	-1.076919
Pd	9.689644	3.230762	-1.076919
Li	-4.306506	0.000000	-4.307682
Li	-2.153249	-2.153839	-6.461521
O	-5.292619	0.986109	-7.629250
O	-0.986116	-0.986109	-5.293791
O	-3.320393	-0.986109	-7.629250
O	-3.139373	1.167730	-5.475412
O	0.986121	0.986109	-5.293791
O	-3.139373	3.139948	-7.447630
O	-1.167136	3.139948	-5.475412
O	-1.167136	1.167730	-7.447630
Pd	-5.383130	-1.076919	-7.538440
Pd	-3.229883	1.076919	-7.538440
Pd	-1.076626	1.076919	-5.384601
Pd	1.076631	-1.076919	-5.384601
Li	0.000000	4.307682	-4.307682
Li	2.153257	2.153843	-6.461521
O	-0.986113	5.293791	-7.629250
O	3.320391	3.321573	-5.293791
O	0.986113	3.321573	-7.629250
O	1.167134	5.475412	-5.475412
O	5.292627	5.293791	-5.293791
O	1.167134	7.447630	-7.447630
O	3.139370	7.447630	-5.475412
O	3.139370	5.475412	-7.447630
Pd	-1.076623	3.230762	-7.538440
Pd	1.076623	5.384601	-7.538440
Pd	3.229880	5.384601	-5.384601
Pd	5.383137	3.230762	-5.384601
Li	4.306506	-4.307682	0.000000
Li	6.459763	-6.461521	-2.153839
O	3.320393	-3.321573	-3.321569
O	7.626897	-5.293791	-0.986109
O	5.292619	-5.293791	-3.321569
O	5.473640	-3.139952	-1.167730
O	9.599133	-3.321573	-0.986109
O	5.473640	-1.167734	-3.139948
O	7.445876	-1.167734	-1.167730
O	7.445876	-3.139952	-3.139948
Pd	3.229883	-5.384601	-3.230758
Pd	5.383130	-3.230762	-3.230758
Pd	7.536387	-3.230762	-1.076919
Pd	9.689644	-5.384601	-1.076919
Li	8.613013	0.000000	0.000000
Li	10.766269	-2.153839	-2.153839
O	7.626899	0.986109	-3.321569
O	11.933403	-0.986109	-0.986109
O	9.599126	-0.986109	-3.321569
O	9.780146	1.167730	-1.167730
O	13.905640	0.986109	-0.986109
O	9.780146	3.139948	-3.139948
O	11.752383	3.139948	-1.167730
O	11.752383	1.167730	-3.139948
Pd	7.536389	-1.076919	-3.230758
Pd	9.689636	1.076919	-3.230758
Pd	11.842893	1.076919	-1.076919
Pd	13.996150	-1.076919	-1.076919
Li	0.000000	-4.307682	-4.307682
Li	2.153257	-6.461521	-6.461521
O	-0.986113	-3.321573	-7.629250
O	3.320391	-5.293791	-5.293791
O	0.986113	-5.293791	-7.629250
O	1.167134	-3.139952	-5.475412
O	5.292627	-3.321573	-5.293791
O	1.167134	-1.167734	-7.447630
O	3.139370	-1.167734	-5.475412
O	3.139370	-3.139952	-7.447630
Pd	-1.076623	-5.384601	-7.538440
Pd	1.076623	-3.230762	-7.538440
Pd	3.229880	-3.230762	-5.384601
Pd	5.383137	-5.384601	-5.384601
Li	4.306506	0.000000	-4.307682
Li	6.459763	-2.153839	-6.461521
O	3.320393	0.986109	-7.629250
O	7.626897	-0.986109	-5.293791
O	5.292619	-0.986109	-7.629250
O	5.473640	1.167730	-5.475412
O	9.599133	0.986109	-5.293791
O	5.473640	3.139948	-7.447630
O	7.445876	3.139948	-5.475412
O	7.445876	1.167730	-7.447630
Pd	3.229883	-1.076919	-7.538440
Pd	5.383130	1.076919	-7.538440
Pd	7.536387	1.076919	-5.384601
Pd	9.689644	-1.076919	-5.384601
