112

Be	0.000000	0.000000	0.000000
Be	2.282897	-2.276698	-2.276698
O	1.034444	1.032037	-1.032037
O	-1.248453	1.244651	-3.308735
O	3.317341	-1.244651	-1.244651
O	1.248453	-1.244651	-3.308735
O	1.034444	3.521349	-3.521349
O	3.531349	3.521349	-1.032037
O	3.531349	1.032037	-3.521349
O	5.814246	1.244651	-1.244651
Pu	-1.141448	-1.138349	-3.415037
Pu	1.141448	1.138349	-3.415037
Pu	5.707242	-1.138349	-1.138349
Pu	3.424345	1.138349	-1.138349
Be	4.565793	4.553387	0.000000
Be	6.848690	2.276689	-2.276698
O	5.600237	5.585424	-1.032037
O	3.317340	5.798038	-3.308735
O	7.883134	3.308736	-1.244651
O	5.814246	3.308736	-3.308735
O	5.600237	8.074736	-3.521349
O	8.097143	8.074736	-1.032037
O	8.097143	5.585424	-3.521349
O	10.380039	5.798038	-1.244651
Pu	3.424345	3.415038	-3.415037
Pu	5.707241	5.691736	-3.415037
Pu	10.273035	3.415038	-1.138349
Pu	7.990138	5.691736	-1.138349
Be	-4.565793	0.000000	-4.553387
Be	-2.282896	-2.276698	-6.830085
O	-3.531349	1.032037	-5.585424
O	-5.814246	1.244651	-7.862122
O	-1.248453	-1.244651	-5.798038
O	-3.317340	-1.244651	-7.862122
O	-3.531349	3.521349	-8.074736
O	-1.034444	3.521349	-5.585424
O	-1.034444	1.032037	-8.074736
O	1.248453	1.244651	-5.798038
Pu	-5.707241	-1.138349	-7.968424
Pu	-3.424345	1.138349	-7.968424
Pu	1.141449	-1.138349	-5.691736
Pu	-1.141448	1.138349	-5.691736
Be	0.000000	4.553387	-4.553387
Be	2.282897	2.276689	-6.830085
O	1.034444	5.585424	-5.585424
O	-1.248453	5.798038	-7.862122
O	3.317341	3.308736	-5.798038
O	1.248453	3.308736	-7.862122
O	1.034444	8.074736	-8.074736
O	3.531349	8.074736	-5.585424
O	3.531349	5.585424	-8.074736
O	5.814246	5.798038	-5.798038
Pu	-1.141448	3.415038	-7.968424
Pu	1.141448	5.691736	-7.968424
Pu	5.707242	3.415038	-5.691736
Pu	3.424345	5.691736	-5.691736
Be	4.565793	-4.553387	0.000000
Be	6.848690	-6.830085	-2.276698
O	5.600237	-3.521350	-1.032037
O	3.317340	-3.308736	-3.308735
O	7.883134	-5.798038	-1.244651
O	5.814246	-5.798038	-3.308735
O	5.600237	-1.032037	-3.521349
O	8.097143	-1.032037	-1.032037
O	8.097143	-3.521350	-3.521349
O	10.380039	-3.308736	-1.244651
Pu	3.424345	-5.691736	-3.415037
Pu	5.707241	-3.415038	-3.415037
Pu	10.273035	-5.691736	-1.138349
Pu	7.990138	-3.415038	-1.138349
Be	9.131586	0.000000	0.000000
Be	11.414483	-2.276698	-2.276698
O	10.166030	1.032037	-1.032037
O	7.883134	1.244651	-3.308735
O	12.448927	-1.244651	-1.244651
O	10.380039	-1.244651	-3.308735
O	10.166030	3.521349	-3.521349
O	12.662936	3.521349	-1.032037
O	12.662936	1.032037	-3.521349
O	14.945832	1.244651	-1.244651
Pu	7.990138	-1.138349	-3.415037
Pu	10.273035	1.138349	-3.415037
Pu	14.838828	-1.138349	-1.138349
Pu	12.555931	1.138349	-1.138349
Be	0.000000	-4.553387	-4.553387
Be	2.282897	-6.830085	-6.830085
O	1.034444	-3.521350	-5.585424
O	-1.248453	-3.308736	-7.862122
O	3.317341	-5.798038	-5.798038
O	1.248453	-5.798038	-7.862122
O	1.034444	-1.032037	-8.074736
O	3.531349	-1.032037	-5.585424
O	3.531349	-3.521350	-8.074736
O	5.814246	-3.308736	-5.798038
Pu	-1.141448	-5.691736	-7.968424
Pu	1.141448	-3.415038	-7.968424
Pu	5.707242	-5.691736	-5.691736
Pu	3.424345	-3.415038	-5.691736
Be	4.565793	0.000000	-4.553387
Be	6.848690	-2.276698	-6.830085
O	5.600237	1.032037	-5.585424
O	3.317340	1.244651	-7.862122
O	7.883134	-1.244651	-5.798038
O	5.814246	-1.244651	-7.862122
O	5.600237	3.521349	-8.074736
O	8.097143	3.521349	-5.585424
O	8.097143	1.032037	-8.074736
O	10.380039	1.244651	-5.798038
Pu	3.424345	-1.138349	-7.968424
Pu	5.707241	1.138349	-7.968424
Pu	10.273035	-1.138349	-5.691736
Pu	7.990138	1.138349	-5.691736
