40

Be	1.711018	1.711018	1.711018
O	0.000000	1.711018	1.711018
O	1.711018	0.000000	1.711018
O	1.711018	1.711018	0.000000
V	0.000000	0.000000	0.000000
Be	1.711018	1.711018	5.133054
O	0.000000	1.711018	5.133054
O	1.711018	0.000000	5.133054
O	1.711018	1.711018	3.422036
V	0.000000	0.000000	3.422036
Be	1.711018	5.133054	1.711018
O	0.000000	5.133054	1.711018
O	1.711018	3.422036	1.711018
O	1.711018	5.133054	0.000000
V	0.000000	3.422036	0.000000
Be	1.711018	5.133054	5.133054
O	0.000000	5.133054	5.133054
O	1.711018	3.422036	5.133054
O	1.711018	5.133054	3.422036
V	0.000000	3.422036	3.422036
Be	5.133054	1.711018	1.711018
O	3.422036	1.711018	1.711018
O	5.133054	0.000000	1.711018
O	5.133054	1.711018	0.000000
V	3.422036	0.000000	0.000000
Be	5.133054	1.711018	5.133054
O	3.422036	1.711018	5.133054
O	5.133054	0.000000	5.133054
O	5.133054	1.711018	3.422036
V	3.422036	0.000000	3.422036
Be	5.133054	5.133054	1.711018
O	3.422036	5.133054	1.711018
O	5.133054	3.422036	1.711018
O	5.133054	5.133054	0.000000
V	3.422036	3.422036	0.000000
Be	5.133054	5.133054	5.133054
O	3.422036	5.133054	5.133054
O	5.133054	3.422036	5.133054
O	5.133054	5.133054	3.422036
V	3.422036	3.422036	3.422036
