40

Be	0.000000	0.000000	0.000000
Bi	2.104586	2.104586	2.104586
O	0.000000	2.104586	2.104586
O	2.104586	0.000000	2.104586
O	2.104586	2.104586	0.000000
Be	0.000000	0.000000	4.209173
Bi	2.104586	2.104586	6.313759
O	0.000000	2.104586	6.313759
O	2.104586	0.000000	6.313759
O	2.104586	2.104586	4.209173
Be	0.000000	4.209173	0.000000
Bi	2.104586	6.313759	2.104586
O	0.000000	6.313759	2.104586
O	2.104586	4.209173	2.104586
O	2.104586	6.313759	0.000000
Be	0.000000	4.209173	4.209173
Bi	2.104586	6.313759	6.313759
O	0.000000	6.313759	6.313759
O	2.104586	4.209173	6.313759
O	2.104586	6.313759	4.209173
Be	4.209173	0.000000	0.000000
Bi	6.313759	2.104586	2.104586
O	4.209173	2.104586	2.104586
O	6.313759	0.000000	2.104586
O	6.313759	2.104586	0.000000
Be	4.209173	0.000000	4.209173
Bi	6.313759	2.104586	6.313759
O	4.209173	2.104586	6.313759
O	6.313759	0.000000	6.313759
O	6.313759	2.104586	4.209173
Be	4.209173	4.209173	0.000000
Bi	6.313759	6.313759	2.104586
O	4.209173	6.313759	2.104586
O	6.313759	4.209173	2.104586
O	6.313759	6.313759	0.000000
Be	4.209173	4.209173	4.209173
Bi	6.313759	6.313759	6.313759
O	4.209173	6.313759	6.313759
O	6.313759	4.209173	6.313759
O	6.313759	6.313759	4.209173
