40

O	1.969965	1.969965	0.000000
O	1.969965	0.000000	1.969965
O	0.000000	1.969965	1.969965
Pd	1.969965	1.969965	1.969965
Yb	0.000000	0.000000	0.000000
O	1.969965	1.969965	3.939930
O	1.969965	0.000000	5.909895
O	0.000000	1.969965	5.909895
Pd	1.969965	1.969965	5.909895
Yb	0.000000	0.000000	3.939930
O	1.969965	5.909895	0.000000
O	1.969965	3.939930	1.969965
O	0.000000	5.909895	1.969965
Pd	1.969965	5.909895	1.969965
Yb	0.000000	3.939930	0.000000
O	1.969965	5.909895	3.939930
O	1.969965	3.939930	5.909895
O	0.000000	5.909895	5.909895
Pd	1.969965	5.909895	5.909895
Yb	0.000000	3.939930	3.939930
O	5.909895	1.969965	0.000000
O	5.909895	0.000000	1.969965
O	3.939930	1.969965	1.969965
Pd	5.909895	1.969965	1.969965
Yb	3.939930	0.000000	0.000000
O	5.909895	1.969965	3.939930
O	5.909895	0.000000	5.909895
O	3.939930	1.969965	5.909895
Pd	5.909895	1.969965	5.909895
Yb	3.939930	0.000000	3.939930
O	5.909895	5.909895	0.000000
O	5.909895	3.939930	1.969965
O	3.939930	5.909895	1.969965
Pd	5.909895	5.909895	1.969965
Yb	3.939930	3.939930	0.000000
O	5.909895	5.909895	3.939930
O	5.909895	3.939930	5.909895
O	3.939930	5.909895	5.909895
Pd	5.909895	5.909895	5.909895
Yb	3.939930	3.939930	3.939930
