40

As	1.985186	1.985186	1.985186
O	1.985186	1.985186	0.000000
O	0.000000	1.985186	1.985186
O	1.985186	0.000000	1.985186
Pb	0.000000	0.000000	0.000000
As	1.985186	1.985186	5.955566
O	1.985186	1.985186	3.970380
O	0.000000	1.985186	5.955566
O	1.985186	0.000000	5.955566
Pb	0.000000	0.000000	3.970380
As	1.985186	5.955566	1.985186
O	1.985186	5.955566	0.000000
O	0.000000	5.955566	1.985186
O	1.985186	3.970380	1.985186
Pb	0.000000	3.970380	0.000000
As	1.985186	5.955566	5.955566
O	1.985186	5.955566	3.970380
O	0.000000	5.955566	5.955566
O	1.985186	3.970380	5.955566
Pb	0.000000	3.970380	3.970380
As	5.955566	1.985186	1.985186
O	5.955566	1.985186	0.000000
O	3.970380	1.985186	1.985186
O	5.955566	0.000000	1.985186
Pb	3.970380	0.000000	0.000000
As	5.955566	1.985186	5.955566
O	5.955566	1.985186	3.970380
O	3.970380	1.985186	5.955566
O	5.955566	0.000000	5.955566
Pb	3.970380	0.000000	3.970380
As	5.955566	5.955566	1.985186
O	5.955566	5.955566	0.000000
O	3.970380	5.955566	1.985186
O	5.955566	3.970380	1.985186
Pb	3.970380	3.970380	0.000000
As	5.955566	5.955566	5.955566
O	5.955566	5.955566	3.970380
O	3.970380	5.955566	5.955566
O	5.955566	3.970380	5.955566
Pb	3.970380	3.970380	3.970380
