40

Co	0.000000	0.000000	0.000000
O	1.754250	0.000000	1.754250
O	0.000000	1.754250	1.754250
O	1.754250	1.754250	0.000000
Si	1.754250	1.754250	1.754250
Co	0.000000	0.000000	3.508496
O	1.754250	0.000000	5.262746
O	0.000000	1.754250	5.262746
O	1.754250	1.754250	3.508496
Si	1.754250	1.754250	5.262746
Co	0.000000	3.508496	0.000000
O	1.754250	3.508496	1.754250
O	0.000000	5.262746	1.754250
O	1.754250	5.262746	0.000000
Si	1.754250	5.262746	1.754250
Co	0.000000	3.508496	3.508496
O	1.754250	3.508496	5.262746
O	0.000000	5.262746	5.262746
O	1.754250	5.262746	3.508496
Si	1.754250	5.262746	5.262746
Co	3.508496	0.000000	0.000000
O	5.262746	0.000000	1.754250
O	3.508496	1.754250	1.754250
O	5.262746	1.754250	0.000000
Si	5.262746	1.754250	1.754250
Co	3.508496	0.000000	3.508496
O	5.262746	0.000000	5.262746
O	3.508496	1.754250	5.262746
O	5.262746	1.754250	3.508496
Si	5.262746	1.754250	5.262746
Co	3.508496	3.508496	0.000000
O	5.262746	3.508496	1.754250
O	3.508496	5.262746	1.754250
O	5.262746	5.262746	0.000000
Si	5.262746	5.262746	1.754250
Co	3.508496	3.508496	3.508496
O	5.262746	3.508496	5.262746
O	3.508496	5.262746	5.262746
O	5.262746	5.262746	3.508496
Si	5.262746	5.262746	5.262746
