40

Cu	2.015826	2.015826	2.015826
O	0.000000	2.015826	2.015826
O	2.015826	0.000000	2.015826
O	2.015826	2.015826	0.000000
Rb	0.000000	0.000000	0.000000
Cu	2.015826	2.015826	6.047479
O	0.000000	2.015826	6.047479
O	2.015826	0.000000	6.047479
O	2.015826	2.015826	4.031653
Rb	0.000000	0.000000	4.031653
Cu	2.015826	6.047479	2.015826
O	0.000000	6.047479	2.015826
O	2.015826	4.031653	2.015826
O	2.015826	6.047479	0.000000
Rb	0.000000	4.031653	0.000000
Cu	2.015826	6.047479	6.047479
O	0.000000	6.047479	6.047479
O	2.015826	4.031653	6.047479
O	2.015826	6.047479	4.031653
Rb	0.000000	4.031653	4.031653
Cu	6.047479	2.015826	2.015826
O	4.031653	2.015826	2.015826
O	6.047479	0.000000	2.015826
O	6.047479	2.015826	0.000000
Rb	4.031653	0.000000	0.000000
Cu	6.047479	2.015826	6.047479
O	4.031653	2.015826	6.047479
O	6.047479	0.000000	6.047479
O	6.047479	2.015826	4.031653
Rb	4.031653	0.000000	4.031653
Cu	6.047479	6.047479	2.015826
O	4.031653	6.047479	2.015826
O	6.047479	4.031653	2.015826
O	6.047479	6.047479	0.000000
Rb	4.031653	4.031653	0.000000
Cu	6.047479	6.047479	6.047479
O	4.031653	6.047479	6.047479
O	6.047479	4.031653	6.047479
O	6.047479	6.047479	4.031653
Rb	4.031653	4.031653	4.031653
