40

Al	0.000000	0.000000	0.000000
Au	2.007670	2.007670	2.007670
O	2.007670	2.007670	0.000000
O	0.000000	2.007670	2.007670
O	2.007670	0.000000	2.007670
Al	0.000000	0.000000	4.015348
Au	2.007670	2.007670	6.023018
O	2.007670	2.007670	4.015348
O	0.000000	2.007670	6.023018
O	2.007670	0.000000	6.023018
Al	0.000000	4.015348	0.000000
Au	2.007670	6.023018	2.007670
O	2.007670	6.023018	0.000000
O	0.000000	6.023018	2.007670
O	2.007670	4.015348	2.007670
Al	0.000000	4.015348	4.015348
Au	2.007670	6.023018	6.023018
O	2.007670	6.023018	4.015348
O	0.000000	6.023018	6.023018
O	2.007670	4.015348	6.023018
Al	4.015348	0.000000	0.000000
Au	6.023018	2.007670	2.007670
O	6.023018	2.007670	0.000000
O	4.015348	2.007670	2.007670
O	6.023018	0.000000	2.007670
Al	4.015348	0.000000	4.015348
Au	6.023018	2.007670	6.023018
O	6.023018	2.007670	4.015348
O	4.015348	2.007670	6.023018
O	6.023018	0.000000	6.023018
Al	4.015348	4.015348	0.000000
Au	6.023018	6.023018	2.007670
O	6.023018	6.023018	0.000000
O	4.015348	6.023018	2.007670
O	6.023018	4.015348	2.007670
Al	4.015348	4.015348	4.015348
Au	6.023018	6.023018	6.023018
O	6.023018	6.023018	4.015348
O	4.015348	6.023018	6.023018
O	6.023018	4.015348	6.023018
