112

Ba	0.000000	0.000000	0.000000
Ba	2.663458	-2.664508	-2.664508
K	-1.331729	-1.332254	-3.996762
K	1.331729	1.332254	-3.996762
K	6.658656	-1.332254	-1.332254
K	3.995197	1.332254	-1.332254
O	3.996274	-1.330246	-1.330246
O	-1.330642	1.330246	-3.998771
O	1.330642	-1.330246	-3.998771
O	1.332816	1.334262	-1.334262
O	6.657569	1.330246	-1.330246
O	1.332816	3.994754	-3.994754
O	3.994111	3.994754	-1.334262
O	3.994111	1.334262	-3.994754
Ba	5.326923	5.329013	0.000000
Ba	7.990381	2.664504	-2.664508
K	3.995193	3.996758	-3.996762
K	6.658652	6.661267	-3.996762
K	11.985578	3.996758	-1.332254
K	9.322120	6.661267	-1.332254
O	9.323197	3.998767	-1.330246
O	3.996280	6.659258	-3.998771
O	6.657565	3.998767	-3.998771
O	6.659739	6.663275	-1.334262
O	11.984492	6.659258	-1.330246
O	6.659739	9.323767	-3.994754
O	9.321033	9.323767	-1.334262
O	9.321033	6.663275	-3.994754
Ba	-5.326923	0.000000	-5.329013
Ba	-2.663464	-2.664508	-7.993521
K	-6.658652	-1.332254	-9.325775
K	-3.995193	1.332254	-9.325775
K	1.331733	-1.332254	-6.661267
K	-1.331725	1.332254	-6.661267
O	-1.330648	-1.330246	-6.659258
O	-6.657565	1.330246	-9.327783
O	-3.996280	-1.330246	-9.327783
O	-3.994107	1.334262	-6.663275
O	1.330646	1.330246	-6.659258
O	-3.994107	3.994754	-9.323767
O	-1.332812	3.994754	-6.663275
O	-1.332812	1.334262	-9.323767
Ba	0.000000	5.329013	-5.329013
Ba	2.663458	2.664504	-7.993521
K	-1.331729	3.996758	-9.325775
K	1.331729	6.661267	-9.325775
K	6.658656	3.996758	-6.661267
K	3.995197	6.661267	-6.661267
O	3.996274	3.998767	-6.659258
O	-1.330642	6.659258	-9.327783
O	1.330642	3.998767	-9.327783
O	1.332816	6.663275	-6.663275
O	6.657569	6.659258	-6.659258
O	1.332816	9.323767	-9.323767
O	3.994111	9.323767	-6.663275
O	3.994111	6.663275	-9.323767
Ba	5.326923	-5.329013	0.000000
Ba	7.990381	-7.993521	-2.664508
K	3.995193	-6.661267	-3.996762
K	6.658652	-3.996758	-3.996762
K	11.985578	-6.661267	-1.332254
K	9.322120	-3.996758	-1.332254
O	9.323197	-6.659258	-1.330246
O	3.996280	-3.998767	-3.998771
O	6.657565	-6.659258	-3.998771
O	6.659739	-3.994750	-1.334262
O	11.984492	-3.998767	-1.330246
O	6.659739	-1.334258	-3.994754
O	9.321033	-1.334258	-1.334262
O	9.321033	-3.994750	-3.994754
Ba	10.653845	0.000000	0.000000
Ba	13.317303	-2.664508	-2.664508
K	9.322116	-1.332254	-3.996762
K	11.985574	1.332254	-3.996762
K	17.312501	-1.332254	-1.332254
K	14.649043	1.332254	-1.332254
O	14.650120	-1.330246	-1.330246
O	9.323203	1.330246	-3.998771
O	11.984488	-1.330246	-3.998771
O	11.986661	1.334262	-1.334262
O	17.311414	1.330246	-1.330246
O	11.986661	3.994754	-3.994754
O	14.647956	3.994754	-1.334262
O	14.647956	1.334262	-3.994754
Ba	0.000000	-5.329013	-5.329013
Ba	2.663458	-7.993521	-7.993521
K	-1.331729	-6.661267	-9.325775
K	1.331729	-3.996758	-9.325775
K	6.658656	-6.661267	-6.661267
K	3.995197	-3.996758	-6.661267
O	3.996274	-6.659258	-6.659258
O	-1.330642	-3.998767	-9.327783
O	1.330642	-6.659258	-9.327783
O	1.332816	-3.994750	-6.663275
O	6.657569	-3.998767	-6.659258
O	1.332816	-1.334258	-9.323767
O	3.994111	-1.334258	-6.663275
O	3.994111	-3.994750	-9.323767
Ba	5.326923	0.000000	-5.329013
Ba	7.990381	-2.664508	-7.993521
K	3.995193	-1.332254	-9.325775
K	6.658652	1.332254	-9.325775
K	11.985578	-1.332254	-6.661267
K	9.322120	1.332254	-6.661267
O	9.323197	-1.330246	-6.659258
O	3.996280	1.330246	-9.327783
O	6.657565	-1.330246	-9.327783
O	6.659739	1.334262	-6.663275
O	11.984492	1.330246	-6.659258
O	6.659739	3.994754	-9.323767
O	9.321033	3.994754	-6.663275
O	9.321033	1.334262	-9.323767
