112

Ba	0.000000	0.000000	0.000000
Ba	2.741424	-2.742579	-2.742579
K	-1.370712	-1.371289	-4.113868
K	4.112136	1.371289	-1.371289
K	6.853560	-1.371289	-1.371289
K	1.370712	1.371289	-4.113868
O	4.106745	-1.375970	-1.375970
O	-1.376103	1.375970	-4.109188
O	1.376103	-1.375970	-4.109188
O	1.365321	1.366609	-1.366609
O	6.858951	1.375970	-1.375970
O	1.365321	4.118549	-4.118549
O	4.117527	4.118549	-1.366609
O	4.117527	1.366609	-4.118549
Ba	5.482848	5.485158	0.000000
Ba	8.224272	2.742579	-2.742579
K	4.112136	4.113868	-4.113868
K	9.594984	6.856447	-1.371289
K	12.336408	4.113868	-1.371289
K	6.853560	6.856447	-4.113868
O	9.589593	4.109188	-1.375970
O	4.106745	6.861128	-4.109188
O	6.858951	4.109188	-4.109188
O	6.848169	6.851767	-1.366609
O	12.341799	6.861128	-1.375970
O	6.848169	9.603707	-4.118549
O	9.600375	9.603707	-1.366609
O	9.600375	6.851767	-4.118549
Ba	-5.482848	0.000000	-5.485158
Ba	-2.741424	-2.742579	-8.227737
K	-6.853560	-1.371289	-9.599026
K	-1.370712	1.371289	-6.856447
K	1.370712	-1.371289	-6.856447
K	-4.112136	1.371289	-9.599026
O	-1.376103	-1.375970	-6.861128
O	-6.858951	1.375970	-9.594346
O	-4.106745	-1.375970	-9.594346
O	-4.117527	1.366609	-6.851767
O	1.376103	1.375970	-6.861128
O	-4.117527	4.118549	-9.603707
O	-1.365321	4.118549	-6.851767
O	-1.365321	1.366609	-9.603707
Ba	0.000000	5.485158	-5.485158
Ba	2.741424	2.742579	-8.227737
K	-1.370712	4.113868	-9.599026
K	4.112136	6.856447	-6.856447
K	6.853560	4.113868	-6.856447
K	1.370712	6.856447	-9.599026
O	4.106745	4.109188	-6.861128
O	-1.376103	6.861128	-9.594346
O	1.376103	4.109188	-9.594346
O	1.365321	6.851767	-6.851767
O	6.858951	6.861128	-6.861128
O	1.365321	9.603707	-9.603707
O	4.117527	9.603707	-6.851767
O	4.117527	6.851767	-9.603707
Ba	5.482848	-5.485158	0.000000
Ba	8.224272	-8.227737	-2.742579
K	4.112136	-6.856447	-4.113868
K	9.594984	-4.113868	-1.371289
K	12.336408	-6.856447	-1.371289
K	6.853560	-4.113868	-4.113868
O	9.589593	-6.861128	-1.375970
O	4.106745	-4.109188	-4.109188
O	6.858951	-6.861128	-4.109188
O	6.848169	-4.118549	-1.366609
O	12.341799	-4.109188	-1.375970
O	6.848169	-1.366609	-4.118549
O	9.600375	-1.366609	-1.366609
O	9.600375	-4.118549	-4.118549
Ba	10.965696	0.000000	0.000000
Ba	13.707120	-2.742579	-2.742579
K	9.594984	-1.371289	-4.113868
K	15.077833	1.371289	-1.371289
K	17.819257	-1.371289	-1.371289
K	12.336408	1.371289	-4.113868
O	15.072442	-1.375970	-1.375970
O	9.589593	1.375970	-4.109188
O	12.341799	-1.375970	-4.109188
O	12.331017	1.366609	-1.366609
O	17.824648	1.375970	-1.375970
O	12.331017	4.118549	-4.118549
O	15.083223	4.118549	-1.366609
O	15.083223	1.366609	-4.118549
Ba	0.000000	-5.485158	-5.485158
Ba	2.741424	-8.227737	-8.227737
K	-1.370712	-6.856447	-9.599026
K	4.112136	-4.113868	-6.856447
K	6.853560	-6.856447	-6.856447
K	1.370712	-4.113868	-9.599026
O	4.106745	-6.861128	-6.861128
O	-1.376103	-4.109188	-9.594346
O	1.376103	-6.861128	-9.594346
O	1.365321	-4.118549	-6.851767
O	6.858951	-4.109188	-6.861128
O	1.365321	-1.366609	-9.603707
O	4.117527	-1.366609	-6.851767
O	4.117527	-4.118549	-9.603707
Ba	5.482848	0.000000	-5.485158
Ba	8.224272	-2.742579	-8.227737
K	4.112136	-1.371289	-9.599026
K	9.594984	1.371289	-6.856447
K	12.336408	-1.371289	-6.856447
K	6.853560	1.371289	-9.599026
O	9.589593	-1.375970	-6.861128
O	4.106745	1.375970	-9.594346
O	6.858951	-1.375970	-9.594346
O	6.848169	1.366609	-6.851767
O	12.341799	1.375970	-6.861128
O	6.848169	4.118549	-9.603707
O	9.600375	4.118549	-6.851767
O	9.600375	1.366609	-9.603707
