40

Np	2.221698	2.221698	2.221698
O	2.221698	2.221698	0.000000
O	2.221698	0.000000	2.221698
O	0.000000	2.221698	2.221698
Sn	0.000000	0.000000	0.000000
Np	2.221698	2.221698	6.665095
O	2.221698	2.221698	4.443397
O	2.221698	0.000000	6.665095
O	0.000000	2.221698	6.665095
Sn	0.000000	0.000000	4.443397
Np	2.221698	6.665095	2.221698
O	2.221698	6.665095	0.000000
O	2.221698	4.443397	2.221698
O	0.000000	6.665095	2.221698
Sn	0.000000	4.443397	0.000000
Np	2.221698	6.665095	6.665095
O	2.221698	6.665095	4.443397
O	2.221698	4.443397	6.665095
O	0.000000	6.665095	6.665095
Sn	0.000000	4.443397	4.443397
Np	6.665095	2.221698	2.221698
O	6.665095	2.221698	0.000000
O	6.665095	0.000000	2.221698
O	4.443397	2.221698	2.221698
Sn	4.443397	0.000000	0.000000
Np	6.665095	2.221698	6.665095
O	6.665095	2.221698	4.443397
O	6.665095	0.000000	6.665095
O	4.443397	2.221698	6.665095
Sn	4.443397	0.000000	4.443397
Np	6.665095	6.665095	2.221698
O	6.665095	6.665095	0.000000
O	6.665095	4.443397	2.221698
O	4.443397	6.665095	2.221698
Sn	4.443397	4.443397	0.000000
Np	6.665095	6.665095	6.665095
O	6.665095	6.665095	4.443397
O	6.665095	4.443397	6.665095
O	4.443397	6.665095	6.665095
Sn	4.443397	4.443397	4.443397
