112

Mn	0.000000	0.000000	0.000000
Mn	2.246552	-2.236052	-2.236052
Na	-1.123276	-1.118026	-3.354078
Na	3.369829	1.118026	-1.118026
Na	5.616381	-1.118026	-1.118026
Na	1.123276	1.118026	-3.354078
O	3.219865	-1.267925	-1.267925
O	-1.273240	1.267925	-3.204178
O	1.273239	-1.267925	-3.204178
O	0.973313	0.968126	-0.968126
O	5.766344	1.267925	-1.267925
O	0.973313	3.503977	-3.503977
O	3.519792	3.503977	-0.968126
O	3.519792	0.968126	-3.503977
Mn	4.493105	4.472103	0.000000
Mn	6.739657	2.236052	-2.236052
Na	3.369829	3.354078	-3.354078
Na	7.862933	5.590129	-1.118026
Na	10.109486	3.354078	-1.118026
Na	5.616381	5.590129	-3.354078
O	7.712970	3.204178	-1.267925
O	3.219865	5.740029	-3.204178
O	5.766344	3.204178	-3.204178
O	5.466418	5.440230	-0.968126
O	10.259449	5.740029	-1.267925
O	5.466418	7.976081	-3.503977
O	8.012897	7.976081	-0.968126
O	8.012897	5.440230	-3.503977
Mn	-4.493105	0.000000	-4.472103
Mn	-2.246552	-2.236052	-6.708155
Na	-5.616381	-1.118026	-7.826181
Na	-1.123276	1.118026	-5.590129
Na	1.123276	-1.118026	-5.590129
Na	-3.369829	1.118026	-7.826181
O	-1.273239	-1.267925	-5.740029
O	-5.766344	1.267925	-7.676281
O	-3.219865	-1.267925	-7.676281
O	-3.519792	0.968126	-5.440230
O	1.273240	1.267925	-5.740029
O	-3.519792	3.503977	-7.976081
O	-0.973313	3.503977	-5.440230
O	-0.973313	0.968126	-7.976081
Mn	0.000000	4.472103	-4.472103
Mn	2.246552	2.236052	-6.708155
Na	-1.123276	3.354078	-7.826181
Na	3.369829	5.590129	-5.590129
Na	5.616381	3.354078	-5.590129
Na	1.123276	5.590129	-7.826181
O	3.219865	3.204178	-5.740029
O	-1.273240	5.740029	-7.676281
O	1.273239	3.204178	-7.676281
O	0.973313	5.440230	-5.440230
O	5.766344	5.740029	-5.740029
O	0.973313	7.976081	-7.976081
O	3.519792	7.976081	-5.440230
O	3.519792	5.440230	-7.976081
Mn	4.493105	-4.472103	0.000000
Mn	6.739657	-6.708155	-2.236052
Na	3.369829	-5.590129	-3.354078
Na	7.862933	-3.354078	-1.118026
Na	10.109486	-5.590129	-1.118026
Na	5.616381	-3.354078	-3.354078
O	7.712970	-5.740029	-1.267925
O	3.219865	-3.204178	-3.204178
O	5.766344	-5.740029	-3.204178
O	5.466418	-3.503977	-0.968126
O	10.259449	-3.204178	-1.267925
O	5.466418	-0.968126	-3.503977
O	8.012897	-0.968126	-0.968126
O	8.012897	-3.503977	-3.503977
Mn	8.986209	0.000000	0.000000
Mn	11.232762	-2.236052	-2.236052
Na	7.862933	-1.118026	-3.354078
Na	12.356038	1.118026	-1.118026
Na	14.602590	-1.118026	-1.118026
Na	10.109486	1.118026	-3.354078
O	12.206075	-1.267925	-1.267925
O	7.712970	1.267925	-3.204178
O	10.259449	-1.267925	-3.204178
O	9.959522	0.968126	-0.968126
O	14.752554	1.267925	-1.267925
O	9.959522	3.503977	-3.503977
O	12.506001	3.503977	-0.968126
O	12.506001	0.968126	-3.503977
Mn	0.000000	-4.472103	-4.472103
Mn	2.246552	-6.708155	-6.708155
Na	-1.123276	-5.590129	-7.826181
Na	3.369829	-3.354078	-5.590129
Na	5.616381	-5.590129	-5.590129
Na	1.123276	-3.354078	-7.826181
O	3.219865	-5.740029	-5.740029
O	-1.273240	-3.204178	-7.676281
O	1.273239	-5.740029	-7.676281
O	0.973313	-3.503977	-5.440230
O	5.766344	-3.204178	-5.740029
O	0.973313	-0.968126	-7.976081
O	3.519792	-0.968126	-5.440230
O	3.519792	-3.503977	-7.976081
Mn	4.493105	0.000000	-4.472103
Mn	6.739657	-2.236052	-6.708155
Na	3.369829	-1.118026	-7.826181
Na	7.862933	1.118026	-5.590129
Na	10.109486	-1.118026	-5.590129
Na	5.616381	1.118026	-7.826181
O	7.712970	-1.267925	-5.740029
O	3.219865	1.267925	-7.676281
O	5.766344	-1.267925	-7.676281
O	5.466418	0.968126	-5.440230
O	10.259449	1.267925	-5.740029
O	5.466418	3.503977	-7.976081
O	8.012897	3.503977	-5.440230
O	8.012897	0.968126	-7.976081
