40

B	1.711280	1.711280	1.711280
O	1.711280	1.711280	0.000000
O	0.000000	1.711280	1.711280
O	1.711280	0.000000	1.711280
Zr	0.000000	0.000000	0.000000
B	1.711280	1.711280	5.133840
O	1.711280	1.711280	3.422560
O	0.000000	1.711280	5.133840
O	1.711280	0.000000	5.133840
Zr	0.000000	0.000000	3.422560
B	1.711280	5.133840	1.711280
O	1.711280	5.133840	0.000000
O	0.000000	5.133840	1.711280
O	1.711280	3.422560	1.711280
Zr	0.000000	3.422560	0.000000
B	1.711280	5.133840	5.133840
O	1.711280	5.133840	3.422560
O	0.000000	5.133840	5.133840
O	1.711280	3.422560	5.133840
Zr	0.000000	3.422560	3.422560
B	5.133840	1.711280	1.711280
O	5.133840	1.711280	0.000000
O	3.422560	1.711280	1.711280
O	5.133840	0.000000	1.711280
Zr	3.422560	0.000000	0.000000
B	5.133840	1.711280	5.133840
O	5.133840	1.711280	3.422560
O	3.422560	1.711280	5.133840
O	5.133840	0.000000	5.133840
Zr	3.422560	0.000000	3.422560
B	5.133840	5.133840	1.711280
O	5.133840	5.133840	0.000000
O	3.422560	5.133840	1.711280
O	5.133840	3.422560	1.711280
Zr	3.422560	3.422560	0.000000
B	5.133840	5.133840	5.133840
O	5.133840	5.133840	3.422560
O	3.422560	5.133840	5.133840
O	5.133840	3.422560	5.133840
Zr	3.422560	3.422560	3.422560
