40

Ac	0.000000	0.000000	0.000000
Na	2.069304	2.069304	2.069304
O	2.069304	2.069304	0.000000
O	2.069304	0.000000	2.069304
O	0.000000	2.069304	2.069304
Ac	0.000000	0.000000	4.138609
Na	2.069304	2.069304	6.207913
O	2.069304	2.069304	4.138609
O	2.069304	0.000000	6.207913
O	0.000000	2.069304	6.207913
Ac	0.000000	4.138609	0.000000
Na	2.069304	6.207913	2.069304
O	2.069304	6.207913	0.000000
O	2.069304	4.138609	2.069304
O	0.000000	6.207913	2.069304
Ac	0.000000	4.138609	4.138609
Na	2.069304	6.207913	6.207913
O	2.069304	6.207913	4.138609
O	2.069304	4.138609	6.207913
O	0.000000	6.207913	6.207913
Ac	4.138609	0.000000	0.000000
Na	6.207913	2.069304	2.069304
O	6.207913	2.069304	0.000000
O	6.207913	0.000000	2.069304
O	4.138609	2.069304	2.069304
Ac	4.138609	0.000000	4.138609
Na	6.207913	2.069304	6.207913
O	6.207913	2.069304	4.138609
O	6.207913	0.000000	6.207913
O	4.138609	2.069304	6.207913
Ac	4.138609	4.138609	0.000000
Na	6.207913	6.207913	2.069304
O	6.207913	6.207913	0.000000
O	6.207913	4.138609	2.069304
O	4.138609	6.207913	2.069304
Ac	4.138609	4.138609	4.138609
Na	6.207913	6.207913	6.207913
O	6.207913	6.207913	4.138609
O	6.207913	4.138609	6.207913
O	4.138609	6.207913	6.207913
