40

Bi	0.000000	0.000000	0.000000
O	2.185550	2.185550	0.000000
O	2.185550	0.000000	2.185550
O	0.000000	2.185550	2.185550
Rb	2.185550	2.185550	2.185550
Bi	0.000000	0.000000	4.371101
O	2.185550	2.185550	4.371101
O	2.185550	0.000000	6.556651
O	0.000000	2.185550	6.556651
Rb	2.185550	2.185550	6.556651
Bi	0.000000	4.371101	0.000000
O	2.185550	6.556651	0.000000
O	2.185550	4.371101	2.185550
O	0.000000	6.556651	2.185550
Rb	2.185550	6.556651	2.185550
Bi	0.000000	4.371101	4.371101
O	2.185550	6.556651	4.371101
O	2.185550	4.371101	6.556651
O	0.000000	6.556651	6.556651
Rb	2.185550	6.556651	6.556651
Bi	4.371101	0.000000	0.000000
O	6.556651	2.185550	0.000000
O	6.556651	0.000000	2.185550
O	4.371101	2.185550	2.185550
Rb	6.556651	2.185550	2.185550
Bi	4.371101	0.000000	4.371101
O	6.556651	2.185550	4.371101
O	6.556651	0.000000	6.556651
O	4.371101	2.185550	6.556651
Rb	6.556651	2.185550	6.556651
Bi	4.371101	4.371101	0.000000
O	6.556651	6.556651	0.000000
O	6.556651	4.371101	2.185550
O	4.371101	6.556651	2.185550
Rb	6.556651	6.556651	2.185550
Bi	4.371101	4.371101	4.371101
O	6.556651	6.556651	4.371101
O	6.556651	4.371101	6.556651
O	4.371101	6.556651	6.556651
Rb	6.556651	6.556651	6.556651
