40

Br	0.000000	0.000000	0.000000
Ca	2.319210	2.319210	2.319210
O	0.000000	2.319210	2.319210
O	2.319210	0.000000	2.319210
O	2.319210	2.319210	0.000000
Br	0.000000	0.000000	4.638419
Ca	2.319210	2.319210	6.957629
O	0.000000	2.319210	6.957629
O	2.319210	0.000000	6.957629
O	2.319210	2.319210	4.638419
Br	0.000000	4.638419	0.000000
Ca	2.319210	6.957629	2.319210
O	0.000000	6.957629	2.319210
O	2.319210	4.638419	2.319210
O	2.319210	6.957629	0.000000
Br	0.000000	4.638419	4.638419
Ca	2.319210	6.957629	6.957629
O	0.000000	6.957629	6.957629
O	2.319210	4.638419	6.957629
O	2.319210	6.957629	4.638419
Br	4.638419	0.000000	0.000000
Ca	6.957629	2.319210	2.319210
O	4.638419	2.319210	2.319210
O	6.957629	0.000000	2.319210
O	6.957629	2.319210	0.000000
Br	4.638419	0.000000	4.638419
Ca	6.957629	2.319210	6.957629
O	4.638419	2.319210	6.957629
O	6.957629	0.000000	6.957629
O	6.957629	2.319210	4.638419
Br	4.638419	4.638419	0.000000
Ca	6.957629	6.957629	2.319210
O	4.638419	6.957629	2.319210
O	6.957629	4.638419	2.319210
O	6.957629	6.957629	0.000000
Br	4.638419	4.638419	4.638419
Ca	6.957629	6.957629	6.957629
O	4.638419	6.957629	6.957629
O	6.957629	4.638419	6.957629
O	6.957629	6.957629	4.638419
