112

La	0.000000	0.000000	0.000000
La	2.712746	-2.712052	-2.712052
O	1.234854	1.233512	-1.233512
O	1.477892	-1.478549	-3.945564
O	3.947601	-1.478549	-1.478549
O	-1.477892	1.478549	-3.945564
O	4.190638	4.190601	-1.233512
O	4.190638	1.233512	-4.190601
O	1.234854	4.190601	-4.190601
O	6.903385	1.478549	-1.478549
Rb	-1.356368	-1.356031	-4.068082
Rb	6.781861	-1.356031	-1.356031
Rb	1.356368	1.356031	-4.068082
Rb	4.069115	1.356031	-1.356031
La	5.425492	5.424108	0.000000
La	8.138238	2.712057	-2.712052
O	6.660346	6.657620	-1.233512
O	6.903384	3.945559	-3.945564
O	9.373092	3.945559	-1.478549
O	3.947600	6.902657	-3.945564
O	9.616130	9.614709	-1.233512
O	9.616130	6.657620	-4.190601
O	6.660346	9.614709	-4.190601
O	12.328876	6.902657	-1.478549
Rb	4.069123	4.068077	-4.068082
Rb	12.207353	4.068077	-1.356031
Rb	6.781860	6.780139	-4.068082
Rb	9.494606	6.780139	-1.356031
La	-5.425492	0.000000	-5.424108
La	-2.712745	-2.712052	-8.136160
O	-4.190637	1.233512	-6.657620
O	-3.947600	-1.478549	-9.369672
O	-1.477891	-1.478549	-6.902657
O	-6.903384	1.478549	-9.369672
O	-1.234853	4.190601	-6.657620
O	-1.234853	1.233512	-9.614709
O	-4.190637	4.190601	-9.614709
O	1.477893	1.478549	-6.902657
Rb	-6.781860	-1.356031	-9.492190
Rb	1.356369	-1.356031	-6.780139
Rb	-4.069123	1.356031	-9.492190
Rb	-1.356377	1.356031	-6.780139
La	0.000000	5.424108	-5.424108
La	2.712746	2.712057	-8.136160
O	1.234854	6.657620	-6.657620
O	1.477892	3.945559	-9.369672
O	3.947601	3.945559	-6.902657
O	-1.477892	6.902657	-9.369672
O	4.190638	9.614709	-6.657620
O	4.190638	6.657620	-9.614709
O	1.234854	9.614709	-9.614709
O	6.903385	6.902657	-6.902657
Rb	-1.356368	4.068077	-9.492190
Rb	6.781861	4.068077	-6.780139
Rb	1.356368	6.780139	-9.492190
Rb	4.069115	6.780139	-6.780139
La	5.425492	-5.424108	0.000000
La	8.138238	-8.136160	-2.712052
O	6.660346	-4.190596	-1.233512
O	6.903384	-6.902657	-3.945564
O	9.373092	-6.902657	-1.478549
O	3.947600	-3.945559	-3.945564
O	9.616130	-1.233507	-1.233512
O	9.616130	-4.190596	-4.190601
O	6.660346	-1.233507	-4.190601
O	12.328876	-3.945559	-1.478549
Rb	4.069123	-6.780139	-4.068082
Rb	12.207353	-6.780139	-1.356031
Rb	6.781860	-4.068077	-4.068082
Rb	9.494606	-4.068077	-1.356031
La	10.850983	0.000000	0.000000
La	13.563730	-2.712052	-2.712052
O	12.085838	1.233512	-1.233512
O	12.328875	-1.478549	-3.945564
O	14.798584	-1.478549	-1.478549
O	9.373091	1.478549	-3.945564
O	15.041622	4.190601	-1.233512
O	15.041622	1.233512	-4.190601
O	12.085838	4.190601	-4.190601
O	17.754368	1.478549	-1.478549
Rb	9.494615	-1.356031	-4.068082
Rb	17.632844	-1.356031	-1.356031
Rb	12.207352	1.356031	-4.068082
Rb	14.920098	1.356031	-1.356031
La	0.000000	-5.424108	-5.424108
La	2.712746	-8.136160	-8.136160
O	1.234854	-4.190596	-6.657620
O	1.477892	-6.902657	-9.369672
O	3.947601	-6.902657	-6.902657
O	-1.477892	-3.945559	-9.369672
O	4.190638	-1.233507	-6.657620
O	4.190638	-4.190596	-9.614709
O	1.234854	-1.233507	-9.614709
O	6.903385	-3.945559	-6.902657
Rb	-1.356368	-6.780139	-9.492190
Rb	6.781861	-6.780139	-6.780139
Rb	1.356368	-4.068077	-9.492190
Rb	4.069115	-4.068077	-6.780139
La	5.425492	0.000000	-5.424108
La	8.138238	-2.712052	-8.136160
O	6.660346	1.233512	-6.657620
O	6.903384	-1.478549	-9.369672
O	9.373092	-1.478549	-6.902657
O	3.947600	1.478549	-9.369672
O	9.616130	4.190601	-6.657620
O	9.616130	1.233512	-9.614709
O	6.660346	4.190601	-9.614709
O	12.328876	1.478549	-6.902657
Rb	4.069123	-1.356031	-9.492190
Rb	12.207353	-1.356031	-6.780139
Rb	6.781860	1.356031	-9.492190
Rb	9.494606	1.356031	-6.780139
