40

Br	2.080950	2.080950	2.080950
O	0.000000	2.080950	2.080950
O	2.080950	0.000000	2.080950
O	2.080950	2.080950	0.000000
Y	0.000000	0.000000	0.000000
Br	2.080950	2.080950	6.242851
O	0.000000	2.080950	6.242851
O	2.080950	0.000000	6.242851
O	2.080950	2.080950	4.161900
Y	0.000000	0.000000	4.161900
Br	2.080950	6.242851	2.080950
O	0.000000	6.242851	2.080950
O	2.080950	4.161900	2.080950
O	2.080950	6.242851	0.000000
Y	0.000000	4.161900	0.000000
Br	2.080950	6.242851	6.242851
O	0.000000	6.242851	6.242851
O	2.080950	4.161900	6.242851
O	2.080950	6.242851	4.161900
Y	0.000000	4.161900	4.161900
Br	6.242851	2.080950	2.080950
O	4.161900	2.080950	2.080950
O	6.242851	0.000000	2.080950
O	6.242851	2.080950	0.000000
Y	4.161900	0.000000	0.000000
Br	6.242851	2.080950	6.242851
O	4.161900	2.080950	6.242851
O	6.242851	0.000000	6.242851
O	6.242851	2.080950	4.161900
Y	4.161900	0.000000	4.161900
Br	6.242851	6.242851	2.080950
O	4.161900	6.242851	2.080950
O	6.242851	4.161900	2.080950
O	6.242851	6.242851	0.000000
Y	4.161900	4.161900	0.000000
Br	6.242851	6.242851	6.242851
O	4.161900	6.242851	6.242851
O	6.242851	4.161900	6.242851
O	6.242851	6.242851	4.161900
Y	4.161900	4.161900	4.161900
