112

Dy	0.000000	0.000000	0.000000
Dy	2.755433	-2.755800	-2.755800
O	3.996186	-1.514428	-1.514428
O	-1.514679	1.514428	-3.997171
O	1.514679	-1.514428	-3.997171
O	1.240753	1.241372	-1.241372
O	7.025544	1.514428	-1.514428
O	1.240753	4.270227	-4.270227
O	4.270112	4.270227	-1.241372
O	4.270112	1.241372	-4.270227
Rb	-1.377716	-1.377900	-4.133699
Rb	4.133149	1.377900	-1.377900
Rb	6.888582	-1.377900	-1.377900
Rb	1.377716	1.377900	-4.133699
Dy	5.510865	5.511599	0.000000
Dy	8.266298	2.755800	-2.755800
O	9.507051	3.997171	-1.514428
O	3.996186	7.026027	-3.997171
O	7.025544	3.997171	-3.997171
O	6.751619	6.752971	-1.241372
O	12.536410	7.026027	-1.514428
O	6.751619	9.781826	-4.270227
O	9.780977	9.781826	-1.241372
O	9.780977	6.752971	-4.270227
Rb	4.133149	4.133699	-4.133699
Rb	9.644014	6.889499	-1.377900
Rb	12.399447	4.133699	-1.377900
Rb	6.888582	6.889499	-4.133699
Dy	-5.510865	0.000000	-5.511599
Dy	-2.755433	-2.755800	-8.267399
O	-1.514679	-1.514428	-7.026027
O	-7.025544	1.514428	-9.508770
O	-3.996186	-1.514428	-9.508770
O	-4.270112	1.241372	-6.752971
O	1.514679	1.514428	-7.026027
O	-4.270112	4.270227	-9.781826
O	-1.240753	4.270227	-6.752971
O	-1.240753	1.241372	-9.781826
Rb	-6.888582	-1.377900	-9.645298
Rb	-1.377716	1.377900	-6.889499
Rb	1.377716	-1.377900	-6.889499
Rb	-4.133149	1.377900	-9.645298
Dy	0.000000	5.511599	-5.511599
Dy	2.755433	2.755800	-8.267399
O	3.996186	3.997171	-7.026027
O	-1.514679	7.026027	-9.508770
O	1.514679	3.997171	-9.508770
O	1.240753	6.752971	-6.752971
O	7.025544	7.026027	-7.026027
O	1.240753	9.781826	-9.781826
O	4.270112	9.781826	-6.752971
O	4.270112	6.752971	-9.781826
Rb	-1.377716	4.133699	-9.645298
Rb	4.133149	6.889499	-6.889499
Rb	6.888582	4.133699	-6.889499
Rb	1.377716	6.889499	-9.645298
Dy	5.510865	-5.511599	0.000000
Dy	8.266298	-8.267399	-2.755800
O	9.507051	-7.026027	-1.514428
O	3.996186	-3.997171	-3.997171
O	7.025544	-7.026027	-3.997171
O	6.751619	-4.270227	-1.241372
O	12.536410	-3.997171	-1.514428
O	6.751619	-1.241372	-4.270227
O	9.780977	-1.241372	-1.241372
O	9.780977	-4.270227	-4.270227
Rb	4.133149	-6.889499	-4.133699
Rb	9.644014	-4.133699	-1.377900
Rb	12.399447	-6.889499	-1.377900
Rb	6.888582	-4.133699	-4.133699
Dy	11.021731	0.000000	0.000000
Dy	13.777163	-2.755800	-2.755800
O	15.017917	-1.514428	-1.514428
O	9.507051	1.514428	-3.997171
O	12.536410	-1.514428	-3.997171
O	12.262484	1.241372	-1.241372
O	18.047275	1.514428	-1.514428
O	12.262484	4.270227	-4.270227
O	15.291842	4.270227	-1.241372
O	15.291842	1.241372	-4.270227
Rb	9.644014	-1.377900	-4.133699
Rb	15.154880	1.377900	-1.377900
Rb	17.910312	-1.377900	-1.377900
Rb	12.399447	1.377900	-4.133699
Dy	0.000000	-5.511599	-5.511599
Dy	2.755433	-8.267399	-8.267399
O	3.996186	-7.026027	-7.026027
O	-1.514679	-3.997171	-9.508770
O	1.514679	-7.026027	-9.508770
O	1.240753	-4.270227	-6.752971
O	7.025544	-3.997171	-7.026027
O	1.240753	-1.241372	-9.781826
O	4.270112	-1.241372	-6.752971
O	4.270112	-4.270227	-9.781826
Rb	-1.377716	-6.889499	-9.645298
Rb	4.133149	-4.133699	-6.889499
Rb	6.888582	-6.889499	-6.889499
Rb	1.377716	-4.133699	-9.645298
Dy	5.510865	0.000000	-5.511599
Dy	8.266298	-2.755800	-8.267399
O	9.507051	-1.514428	-7.026027
O	3.996186	1.514428	-9.508770
O	7.025544	-1.514428	-9.508770
O	6.751619	1.241372	-6.752971
O	12.536410	1.514428	-7.026027
O	6.751619	4.270227	-9.781826
O	9.780977	4.270227	-6.752971
O	9.780977	1.241372	-9.781826
Rb	4.133149	-1.377900	-9.645298
Rb	9.644014	1.377900	-6.889499
Rb	12.399447	-1.377900	-6.889499
Rb	6.888582	1.377900	-9.645298
