64

Ba	0.000000	0.000000	2.760097
Ba	0.000000	2.760097	0.000000
Ba	2.760097	0.000000	0.000000
Sr	2.760097	2.760097	2.760097
O	0.000000	0.000000	0.000000
O	2.760097	2.760097	0.000000
O	2.760097	0.000000	2.760097
O	0.000000	2.760097	2.760097
Ba	0.000000	0.000000	8.280291
Ba	0.000000	2.760097	5.520194
Ba	2.760097	0.000000	5.520194
Sr	2.760097	2.760097	8.280291
O	0.000000	0.000000	5.520194
O	2.760097	2.760097	5.520194
O	2.760097	0.000000	8.280291
O	0.000000	2.760097	8.280291
Ba	0.000000	5.520194	2.760097
Ba	0.000000	8.280291	0.000000
Ba	2.760097	5.520194	0.000000
Sr	2.760097	8.280291	2.760097
O	0.000000	5.520194	0.000000
O	2.760097	8.280291	0.000000
O	2.760097	5.520194	2.760097
O	0.000000	8.280291	2.760097
Ba	0.000000	5.520194	8.280291
Ba	0.000000	8.280291	5.520194
Ba	2.760097	5.520194	5.520194
Sr	2.760097	8.280291	8.280291
O	0.000000	5.520194	5.520194
O	2.760097	8.280291	5.520194
O	2.760097	5.520194	8.280291
O	0.000000	8.280291	8.280291
Ba	5.520194	0.000000	2.760097
Ba	5.520194	2.760097	0.000000
Ba	8.280291	0.000000	0.000000
Sr	8.280291	2.760097	2.760097
O	5.520194	0.000000	0.000000
O	8.280291	2.760097	0.000000
O	8.280291	0.000000	2.760097
O	5.520194	2.760097	2.760097
Ba	5.520194	0.000000	8.280291
Ba	5.520194	2.760097	5.520194
Ba	8.280291	0.000000	5.520194
Sr	8.280291	2.760097	8.280291
O	5.520194	0.000000	5.520194
O	8.280291	2.760097	5.520194
O	8.280291	0.000000	8.280291
O	5.520194	2.760097	8.280291
Ba	5.520194	5.520194	2.760097
Ba	5.520194	8.280291	0.000000
Ba	8.280291	5.520194	0.000000
Sr	8.280291	8.280291	2.760097
O	5.520194	5.520194	0.000000
O	8.280291	8.280291	0.000000
O	8.280291	5.520194	2.760097
O	5.520194	8.280291	2.760097
Ba	5.520194	5.520194	8.280291
Ba	5.520194	8.280291	5.520194
Ba	8.280291	5.520194	5.520194
Sr	8.280291	8.280291	8.280291
O	5.520194	5.520194	5.520194
O	8.280291	8.280291	5.520194
O	8.280291	5.520194	8.280291
O	5.520194	8.280291	8.280291
