40

Na	0.000000	0.000000	0.000000
O	0.000000	2.080104	2.080104
O	2.080104	0.000000	2.080104
O	2.080104	2.080104	0.000000
Sn	2.080104	2.080104	2.080104
Na	0.000000	0.000000	4.160208
O	0.000000	2.080104	6.240312
O	2.080104	0.000000	6.240312
O	2.080104	2.080104	4.160208
Sn	2.080104	2.080104	6.240312
Na	0.000000	4.160208	0.000000
O	0.000000	6.240312	2.080104
O	2.080104	4.160208	2.080104
O	2.080104	6.240312	0.000000
Sn	2.080104	6.240312	2.080104
Na	0.000000	4.160208	4.160208
O	0.000000	6.240312	6.240312
O	2.080104	4.160208	6.240312
O	2.080104	6.240312	4.160208
Sn	2.080104	6.240312	6.240312
Na	4.160208	0.000000	0.000000
O	4.160208	2.080104	2.080104
O	6.240312	0.000000	2.080104
O	6.240312	2.080104	0.000000
Sn	6.240312	2.080104	2.080104
Na	4.160208	0.000000	4.160208
O	4.160208	2.080104	6.240312
O	6.240312	0.000000	6.240312
O	6.240312	2.080104	4.160208
Sn	6.240312	2.080104	6.240312
Na	4.160208	4.160208	0.000000
O	4.160208	6.240312	2.080104
O	6.240312	4.160208	2.080104
O	6.240312	6.240312	0.000000
Sn	6.240312	6.240312	2.080104
Na	4.160208	4.160208	4.160208
O	4.160208	6.240312	6.240312
O	6.240312	4.160208	6.240312
O	6.240312	6.240312	4.160208
Sn	6.240312	6.240312	6.240312
