112

O	3.325675	-0.836341	-0.836341
O	-0.836613	0.836341	-3.326452
O	0.836613	-0.836341	-3.326452
O	1.244531	1.245056	-1.245056
O	4.998901	0.836341	-0.836341
O	1.244531	2.917737	-2.917737
O	2.917757	2.917737	-1.245056
O	2.917757	1.245056	-2.917737
Rh	0.000000	0.000000	0.000000
Rh	2.081144	-2.081396	-2.081396
Si	-1.040572	-1.040698	-3.122094
Si	3.121716	1.040698	-1.040698
Si	5.202860	-1.040698	-1.040698
Si	1.040572	1.040698	-3.122094
O	7.487964	3.326452	-0.836341
O	3.325675	4.999133	-3.326452
O	4.998901	3.326452	-3.326452
O	5.406819	5.407848	-1.245056
O	9.161190	4.999133	-0.836341
O	5.406819	7.080529	-2.917737
O	7.080045	7.080529	-1.245056
O	7.080045	5.407848	-2.917737
Rh	4.162288	4.162792	0.000000
Rh	6.243432	2.081396	-2.081396
Si	3.121716	3.122094	-3.122094
Si	7.284005	5.203491	-1.040698
Si	9.365149	3.122094	-1.040698
Si	5.202860	5.203491	-3.122094
O	-0.836613	-0.836341	-4.999133
O	-4.998901	0.836341	-7.489244
O	-3.325675	-0.836341	-7.489244
O	-2.917757	1.245056	-5.407848
O	0.836613	0.836341	-4.999133
O	-2.917757	2.917737	-7.080529
O	-1.244531	2.917737	-5.407848
O	-1.244531	1.245056	-7.080529
Rh	-4.162288	0.000000	-4.162792
Rh	-2.081144	-2.081396	-6.244189
Si	-5.202860	-1.040698	-7.284887
Si	-1.040572	1.040698	-5.203491
Si	1.040572	-1.040698	-5.203491
Si	-3.121716	1.040698	-7.284887
O	3.325675	3.326452	-4.999133
O	-0.836613	4.999133	-7.489244
O	0.836613	3.326452	-7.489244
O	1.244531	5.407848	-5.407848
O	4.998901	4.999133	-4.999133
O	1.244531	7.080529	-7.080529
O	2.917757	7.080529	-5.407848
O	2.917757	5.407848	-7.080529
Rh	0.000000	4.162792	-4.162792
Rh	2.081144	2.081396	-6.244189
Si	-1.040572	3.122094	-7.284887
Si	3.121716	5.203491	-5.203491
Si	5.202860	3.122094	-5.203491
Si	1.040572	5.203491	-7.284887
O	7.487964	-4.999133	-0.836341
O	3.325675	-3.326452	-3.326452
O	4.998901	-4.999133	-3.326452
O	5.406819	-2.917737	-1.245056
O	9.161190	-3.326452	-0.836341
O	5.406819	-1.245056	-2.917737
O	7.080045	-1.245056	-1.245056
O	7.080045	-2.917737	-2.917737
Rh	4.162288	-4.162792	0.000000
Rh	6.243432	-6.244189	-2.081396
Si	3.121716	-5.203491	-3.122094
Si	7.284005	-3.122094	-1.040698
Si	9.365149	-5.203491	-1.040698
Si	5.202860	-3.122094	-3.122094
O	11.650252	-0.836341	-0.836341
O	7.487964	0.836341	-3.326452
O	9.161190	-0.836341	-3.326452
O	9.569108	1.245056	-1.245056
O	13.323478	0.836341	-0.836341
O	9.569108	2.917737	-2.917737
O	11.242334	2.917737	-1.245056
O	11.242334	1.245056	-2.917737
Rh	8.324577	0.000000	0.000000
Rh	10.405721	-2.081396	-2.081396
Si	7.284005	-1.040698	-3.122094
Si	11.446293	1.040698	-1.040698
Si	13.527437	-1.040698	-1.040698
Si	9.365149	1.040698	-3.122094
O	3.325675	-4.999133	-4.999133
O	-0.836613	-3.326452	-7.489244
O	0.836613	-4.999133	-7.489244
O	1.244531	-2.917737	-5.407848
O	4.998901	-3.326452	-4.999133
O	1.244531	-1.245056	-7.080529
O	2.917757	-1.245056	-5.407848
O	2.917757	-2.917737	-7.080529
Rh	0.000000	-4.162792	-4.162792
Rh	2.081144	-6.244189	-6.244189
Si	-1.040572	-5.203491	-7.284887
Si	3.121716	-3.122094	-5.203491
Si	5.202860	-5.203491	-5.203491
Si	1.040572	-3.122094	-7.284887
O	7.487964	-0.836341	-4.999133
O	3.325675	0.836341	-7.489244
O	4.998901	-0.836341	-7.489244
O	5.406819	1.245056	-5.407848
O	9.161190	0.836341	-4.999133
O	5.406819	2.917737	-7.080529
O	7.080045	2.917737	-5.407848
O	7.080045	1.245056	-7.080529
Rh	4.162288	0.000000	-4.162792
Rh	6.243432	-2.081396	-6.244189
Si	3.121716	-1.040698	-7.284887
Si	7.284005	1.040698	-5.203491
Si	9.365149	-1.040698	-5.203491
Si	5.202860	1.040698	-7.284887
