40

O	1.883670	1.883670	0.000000
O	1.883670	0.000000	1.883670
O	0.000000	1.883670	1.883670
V	1.883670	1.883670	1.883670
Yb	0.000000	0.000000	0.000000
O	1.883670	1.883670	3.767342
O	1.883670	0.000000	5.651012
O	0.000000	1.883670	5.651012
V	1.883670	1.883670	5.651012
Yb	0.000000	0.000000	3.767342
O	1.883670	5.651012	0.000000
O	1.883670	3.767342	1.883670
O	0.000000	5.651012	1.883670
V	1.883670	5.651012	1.883670
Yb	0.000000	3.767342	0.000000
O	1.883670	5.651012	3.767342
O	1.883670	3.767342	5.651012
O	0.000000	5.651012	5.651012
V	1.883670	5.651012	5.651012
Yb	0.000000	3.767342	3.767342
O	5.651012	1.883670	0.000000
O	5.651012	0.000000	1.883670
O	3.767342	1.883670	1.883670
V	5.651012	1.883670	1.883670
Yb	3.767342	0.000000	0.000000
O	5.651012	1.883670	3.767342
O	5.651012	0.000000	5.651012
O	3.767342	1.883670	5.651012
V	5.651012	1.883670	5.651012
Yb	3.767342	0.000000	3.767342
O	5.651012	5.651012	0.000000
O	5.651012	3.767342	1.883670
O	3.767342	5.651012	1.883670
V	5.651012	5.651012	1.883670
Yb	3.767342	3.767342	0.000000
O	5.651012	5.651012	3.767342
O	5.651012	3.767342	5.651012
O	3.767342	5.651012	5.651012
V	5.651012	5.651012	5.651012
Yb	3.767342	3.767342	3.767342
