112

O	1.234406	-1.239159	-3.761732
O	3.776214	-1.239159	-1.239159
O	-1.234406	1.239159	-3.761732
O	1.270904	1.261286	-1.261286
O	6.245036	1.239159	-1.239159
O	3.739716	3.739604	-1.261286
O	3.739716	1.261286	-3.739604
O	1.270904	3.739604	-3.739604
Pa	0.000000	0.000000	0.000000
Pa	2.505310	-2.500445	-2.500445
U	-1.252660	-1.250218	-3.750663
U	3.757970	1.250218	-1.250218
U	1.252660	1.250218	-3.750663
U	6.263280	-1.250218	-1.250218
O	6.245032	3.761728	-3.761732
O	8.786839	3.761728	-1.239159
O	3.776219	6.240046	-3.761732
O	6.281529	6.262174	-1.261286
O	11.255662	6.240046	-1.239159
O	8.750342	8.740492	-1.261286
O	8.750342	6.262174	-3.739604
O	6.281529	8.740492	-3.739604
Pa	5.010626	5.000887	0.000000
Pa	7.515935	2.500442	-2.500445
U	3.757966	3.750670	-3.750663
U	8.768596	6.251105	-1.250218
U	6.263286	6.251105	-3.750663
U	11.273905	3.750670	-1.250218
O	-3.776219	-1.239159	-8.762619
O	-1.234412	-1.239159	-6.240046
O	-6.245032	1.239159	-8.762619
O	-3.739722	1.261286	-6.262174
O	1.234410	1.239159	-6.240046
O	-1.270910	3.739604	-6.262174
O	-1.270910	1.261286	-8.740492
O	-3.739722	3.739604	-8.740492
Pa	-5.010626	0.000000	-5.000887
Pa	-2.505316	-2.500445	-7.501333
U	-6.263286	-1.250218	-8.751550
U	-1.252656	1.250218	-6.251105
U	-3.757966	1.250218	-8.751550
U	1.252654	-1.250218	-6.251105
O	1.234406	3.761728	-8.762619
O	3.776214	3.761728	-6.240046
O	-1.234406	6.240046	-8.762619
O	1.270904	6.262174	-6.262174
O	6.245036	6.240046	-6.240046
O	3.739716	8.740492	-6.262174
O	3.739716	6.262174	-8.740492
O	1.270904	8.740492	-8.740492
Pa	0.000000	5.000887	-5.000887
Pa	2.505310	2.500442	-7.501333
U	-1.252660	3.750670	-8.751550
U	3.757970	6.251105	-6.251105
U	1.252660	6.251105	-8.751550
U	6.263280	3.750670	-6.251105
O	6.245032	-6.240046	-3.761732
O	8.786839	-6.240046	-1.239159
O	3.776219	-3.761728	-3.761732
O	6.281529	-3.739601	-1.261286
O	11.255662	-3.761728	-1.239159
O	8.750342	-1.261283	-1.261286
O	8.750342	-3.739601	-3.739604
O	6.281529	-1.261283	-3.739604
Pa	5.010626	-5.000887	0.000000
Pa	7.515935	-7.501333	-2.500445
U	3.757966	-6.251105	-3.750663
U	8.768596	-3.750670	-1.250218
U	6.263286	-3.750670	-3.750663
U	11.273905	-6.251105	-1.250218
O	11.255657	-1.239159	-3.761732
O	13.797465	-1.239159	-1.239159
O	8.786845	1.239159	-3.761732
O	11.292155	1.261286	-1.261286
O	16.266287	1.239159	-1.239159
O	13.760967	3.739604	-1.261286
O	13.760967	1.261286	-3.739604
O	11.292155	3.739604	-3.739604
Pa	10.021251	0.000000	0.000000
Pa	12.526561	-2.500445	-2.500445
U	8.768591	-1.250218	-3.750663
U	13.779221	1.250218	-1.250218
U	11.273911	1.250218	-3.750663
U	16.284531	-1.250218	-1.250218
O	1.234406	-6.240046	-8.762619
O	3.776214	-6.240046	-6.240046
O	-1.234406	-3.761728	-8.762619
O	1.270904	-3.739601	-6.262174
O	6.245036	-3.761728	-6.240046
O	3.739716	-1.261283	-6.262174
O	3.739716	-3.739601	-8.740492
O	1.270904	-1.261283	-8.740492
Pa	0.000000	-5.000887	-5.000887
Pa	2.505310	-7.501333	-7.501333
U	-1.252660	-6.251105	-8.751550
U	3.757970	-3.750670	-6.251105
U	1.252660	-3.750670	-8.751550
U	6.263280	-6.251105	-6.251105
O	6.245032	-1.239159	-8.762619
O	8.786839	-1.239159	-6.240046
O	3.776219	1.239159	-8.762619
O	6.281529	1.261286	-6.262174
O	11.255662	1.239159	-6.240046
O	8.750342	3.739604	-6.262174
O	8.750342	1.261286	-8.740492
O	6.281529	3.739604	-8.740492
Pa	5.010626	0.000000	-5.000887
Pa	7.515935	-2.500445	-7.501333
U	3.757966	-1.250218	-8.751550
U	8.768596	1.250218	-6.251105
U	6.263286	1.250218	-8.751550
U	11.273905	-1.250218	-6.251105
