40

Fe	1.911948	1.911948	1.911948
Ge	0.000000	0.000000	0.000000
O	0.000000	1.911948	1.911948
O	1.911948	0.000000	1.911948
O	1.911948	1.911948	0.000000
Fe	1.911948	1.911948	5.735843
Ge	0.000000	0.000000	3.823896
O	0.000000	1.911948	5.735843
O	1.911948	0.000000	5.735843
O	1.911948	1.911948	3.823896
Fe	1.911948	5.735843	1.911948
Ge	0.000000	3.823896	0.000000
O	0.000000	5.735843	1.911948
O	1.911948	3.823896	1.911948
O	1.911948	5.735843	0.000000
Fe	1.911948	5.735843	5.735843
Ge	0.000000	3.823896	3.823896
O	0.000000	5.735843	5.735843
O	1.911948	3.823896	5.735843
O	1.911948	5.735843	3.823896
Fe	5.735843	1.911948	1.911948
Ge	3.823896	0.000000	0.000000
O	3.823896	1.911948	1.911948
O	5.735843	0.000000	1.911948
O	5.735843	1.911948	0.000000
Fe	5.735843	1.911948	5.735843
Ge	3.823896	0.000000	3.823896
O	3.823896	1.911948	5.735843
O	5.735843	0.000000	5.735843
O	5.735843	1.911948	3.823896
Fe	5.735843	5.735843	1.911948
Ge	3.823896	3.823896	0.000000
O	3.823896	5.735843	1.911948
O	5.735843	3.823896	1.911948
O	5.735843	5.735843	0.000000
Fe	5.735843	5.735843	5.735843
Ge	3.823896	3.823896	3.823896
O	3.823896	5.735843	5.735843
O	5.735843	3.823896	5.735843
O	5.735843	5.735843	3.823896
