40

Ca	2.204801	2.204801	2.204801
O	2.204801	2.204801	0.000000
O	2.204801	0.000000	2.204801
O	0.000000	2.204801	2.204801
Tl	0.000000	0.000000	0.000000
Ca	2.204801	2.204801	6.614402
O	2.204801	2.204801	4.409601
O	2.204801	0.000000	6.614402
O	0.000000	2.204801	6.614402
Tl	0.000000	0.000000	4.409601
Ca	2.204801	6.614402	2.204801
O	2.204801	6.614402	0.000000
O	2.204801	4.409601	2.204801
O	0.000000	6.614402	2.204801
Tl	0.000000	4.409601	0.000000
Ca	2.204801	6.614402	6.614402
O	2.204801	6.614402	4.409601
O	2.204801	4.409601	6.614402
O	0.000000	6.614402	6.614402
Tl	0.000000	4.409601	4.409601
Ca	6.614402	2.204801	2.204801
O	6.614402	2.204801	0.000000
O	6.614402	0.000000	2.204801
O	4.409601	2.204801	2.204801
Tl	4.409601	0.000000	0.000000
Ca	6.614402	2.204801	6.614402
O	6.614402	2.204801	4.409601
O	6.614402	0.000000	6.614402
O	4.409601	2.204801	6.614402
Tl	4.409601	0.000000	4.409601
Ca	6.614402	6.614402	2.204801
O	6.614402	6.614402	0.000000
O	6.614402	4.409601	2.204801
O	4.409601	6.614402	2.204801
Tl	4.409601	4.409601	0.000000
Ca	6.614402	6.614402	6.614402
O	6.614402	6.614402	4.409601
O	6.614402	4.409601	6.614402
O	4.409601	6.614402	6.614402
Tl	4.409601	4.409601	4.409601
