40

Ba	0.000000	0.000000	0.000000
O	0.000000	2.405788	2.405788
O	2.405788	0.000000	2.405788
O	2.405788	2.405788	0.000000
Rb	2.405788	2.405788	2.405788
Ba	0.000000	0.000000	4.811576
O	0.000000	2.405788	7.217364
O	2.405788	0.000000	7.217364
O	2.405788	2.405788	4.811576
Rb	2.405788	2.405788	7.217364
Ba	0.000000	4.811576	0.000000
O	0.000000	7.217364	2.405788
O	2.405788	4.811576	2.405788
O	2.405788	7.217364	0.000000
Rb	2.405788	7.217364	2.405788
Ba	0.000000	4.811576	4.811576
O	0.000000	7.217364	7.217364
O	2.405788	4.811576	7.217364
O	2.405788	7.217364	4.811576
Rb	2.405788	7.217364	7.217364
Ba	4.811576	0.000000	0.000000
O	4.811576	2.405788	2.405788
O	7.217364	0.000000	2.405788
O	7.217364	2.405788	0.000000
Rb	7.217364	2.405788	2.405788
Ba	4.811576	0.000000	4.811576
O	4.811576	2.405788	7.217364
O	7.217364	0.000000	7.217364
O	7.217364	2.405788	4.811576
Rb	7.217364	2.405788	7.217364
Ba	4.811576	4.811576	0.000000
O	4.811576	7.217364	2.405788
O	7.217364	4.811576	2.405788
O	7.217364	7.217364	0.000000
Rb	7.217364	7.217364	2.405788
Ba	4.811576	4.811576	4.811576
O	4.811576	7.217364	7.217364
O	7.217364	4.811576	7.217364
O	7.217364	7.217364	4.811576
Rb	7.217364	7.217364	7.217364
