40

Ba	2.323730	2.323730	2.323730
O	2.323730	2.323730	0.000000
O	2.323730	0.000000	2.323730
O	0.000000	2.323730	2.323730
Rb	0.000000	0.000000	0.000000
Ba	2.323730	2.323730	6.971188
O	2.323730	2.323730	4.647458
O	2.323730	0.000000	6.971188
O	0.000000	2.323730	6.971188
Rb	0.000000	0.000000	4.647458
Ba	2.323730	6.971188	2.323730
O	2.323730	6.971188	0.000000
O	2.323730	4.647458	2.323730
O	0.000000	6.971188	2.323730
Rb	0.000000	4.647458	0.000000
Ba	2.323730	6.971188	6.971188
O	2.323730	6.971188	4.647458
O	2.323730	4.647458	6.971188
O	0.000000	6.971188	6.971188
Rb	0.000000	4.647458	4.647458
Ba	6.971188	2.323730	2.323730
O	6.971188	2.323730	0.000000
O	6.971188	0.000000	2.323730
O	4.647458	2.323730	2.323730
Rb	4.647458	0.000000	0.000000
Ba	6.971188	2.323730	6.971188
O	6.971188	2.323730	4.647458
O	6.971188	0.000000	6.971188
O	4.647458	2.323730	6.971188
Rb	4.647458	0.000000	4.647458
Ba	6.971188	6.971188	2.323730
O	6.971188	6.971188	0.000000
O	6.971188	4.647458	2.323730
O	4.647458	6.971188	2.323730
Rb	4.647458	4.647458	0.000000
Ba	6.971188	6.971188	6.971188
O	6.971188	6.971188	4.647458
O	6.971188	4.647458	6.971188
O	4.647458	6.971188	6.971188
Rb	4.647458	4.647458	4.647458
