40

Ba	2.335905	2.335905	2.335905
O	2.335905	2.335905	0.000000
O	2.335905	0.000000	2.335905
O	0.000000	2.335905	2.335905
Rb	0.000000	0.000000	0.000000
Ba	2.335905	2.335905	7.007723
O	2.335905	2.335905	4.671817
O	2.335905	0.000000	7.007723
O	0.000000	2.335905	7.007723
Rb	0.000000	0.000000	4.671817
Ba	2.335905	7.007723	2.335905
O	2.335905	7.007723	0.000000
O	2.335905	4.671817	2.335905
O	0.000000	7.007723	2.335905
Rb	0.000000	4.671817	0.000000
Ba	2.335905	7.007723	7.007723
O	2.335905	7.007723	4.671817
O	2.335905	4.671817	7.007723
O	0.000000	7.007723	7.007723
Rb	0.000000	4.671817	4.671817
Ba	7.007723	2.335905	2.335905
O	7.007723	2.335905	0.000000
O	7.007723	0.000000	2.335905
O	4.671817	2.335905	2.335905
Rb	4.671817	0.000000	0.000000
Ba	7.007723	2.335905	7.007723
O	7.007723	2.335905	4.671817
O	7.007723	0.000000	7.007723
O	4.671817	2.335905	7.007723
Rb	4.671817	0.000000	4.671817
Ba	7.007723	7.007723	2.335905
O	7.007723	7.007723	0.000000
O	7.007723	4.671817	2.335905
O	4.671817	7.007723	2.335905
Rb	4.671817	4.671817	0.000000
Ba	7.007723	7.007723	7.007723
O	7.007723	7.007723	4.671817
O	7.007723	4.671817	7.007723
O	4.671817	7.007723	7.007723
Rb	4.671817	4.671817	4.671817
