40

Ir	0.000000	0.000000	0.000000
K	2.154947	2.154947	2.154947
O	2.154947	2.154947	0.000000
O	2.154947	0.000000	2.154947
O	0.000000	2.154947	2.154947
Ir	0.000000	0.000000	4.309910
K	2.154947	2.154947	6.464857
O	2.154947	2.154947	4.309910
O	2.154947	0.000000	6.464857
O	0.000000	2.154947	6.464857
Ir	0.000000	4.309910	0.000000
K	2.154947	6.464857	2.154947
O	2.154947	6.464857	0.000000
O	2.154947	4.309910	2.154947
O	0.000000	6.464857	2.154947
Ir	0.000000	4.309910	4.309910
K	2.154947	6.464857	6.464857
O	2.154947	6.464857	4.309910
O	2.154947	4.309910	6.464857
O	0.000000	6.464857	6.464857
Ir	4.309910	0.000000	0.000000
K	6.464857	2.154947	2.154947
O	6.464857	2.154947	0.000000
O	6.464857	0.000000	2.154947
O	4.309910	2.154947	2.154947
Ir	4.309910	0.000000	4.309910
K	6.464857	2.154947	6.464857
O	6.464857	2.154947	4.309910
O	6.464857	0.000000	6.464857
O	4.309910	2.154947	6.464857
Ir	4.309910	4.309910	0.000000
K	6.464857	6.464857	2.154947
O	6.464857	6.464857	0.000000
O	6.464857	4.309910	2.154947
O	4.309910	6.464857	2.154947
Ir	4.309910	4.309910	4.309910
K	6.464857	6.464857	6.464857
O	6.464857	6.464857	4.309910
O	6.464857	4.309910	6.464857
O	4.309910	6.464857	6.464857
