40

Co	0.000000	0.000000	0.000000
F	1.826107	1.826107	1.826107
O	0.000000	1.826107	1.826107
O	1.826107	0.000000	1.826107
O	1.826107	1.826107	0.000000
Co	0.000000	0.000000	3.652214
F	1.826107	1.826107	5.478321
O	0.000000	1.826107	5.478321
O	1.826107	0.000000	5.478321
O	1.826107	1.826107	3.652214
Co	0.000000	3.652214	0.000000
F	1.826107	5.478321	1.826107
O	0.000000	5.478321	1.826107
O	1.826107	3.652214	1.826107
O	1.826107	5.478321	0.000000
Co	0.000000	3.652214	3.652214
F	1.826107	5.478321	5.478321
O	0.000000	5.478321	5.478321
O	1.826107	3.652214	5.478321
O	1.826107	5.478321	3.652214
Co	3.652214	0.000000	0.000000
F	5.478321	1.826107	1.826107
O	3.652214	1.826107	1.826107
O	5.478321	0.000000	1.826107
O	5.478321	1.826107	0.000000
Co	3.652214	0.000000	3.652214
F	5.478321	1.826107	5.478321
O	3.652214	1.826107	5.478321
O	5.478321	0.000000	5.478321
O	5.478321	1.826107	3.652214
Co	3.652214	3.652214	0.000000
F	5.478321	5.478321	1.826107
O	3.652214	5.478321	1.826107
O	5.478321	3.652214	1.826107
O	5.478321	5.478321	0.000000
Co	3.652214	3.652214	3.652214
F	5.478321	5.478321	5.478321
O	3.652214	5.478321	5.478321
O	5.478321	3.652214	5.478321
O	5.478321	5.478321	3.652214
