40

As	0.000000	0.000000	0.000000
O	0.000000	2.121689	2.121689
O	2.121689	0.000000	2.121689
O	2.121689	2.121689	0.000000
Tl	2.121689	2.121689	2.121689
As	0.000000	0.000000	4.243378
O	0.000000	2.121689	6.365067
O	2.121689	0.000000	6.365067
O	2.121689	2.121689	4.243378
Tl	2.121689	2.121689	6.365067
As	0.000000	4.243378	0.000000
O	0.000000	6.365067	2.121689
O	2.121689	4.243378	2.121689
O	2.121689	6.365067	0.000000
Tl	2.121689	6.365067	2.121689
As	0.000000	4.243378	4.243378
O	0.000000	6.365067	6.365067
O	2.121689	4.243378	6.365067
O	2.121689	6.365067	4.243378
Tl	2.121689	6.365067	6.365067
As	4.243378	0.000000	0.000000
O	4.243378	2.121689	2.121689
O	6.365067	0.000000	2.121689
O	6.365067	2.121689	0.000000
Tl	6.365067	2.121689	2.121689
As	4.243378	0.000000	4.243378
O	4.243378	2.121689	6.365067
O	6.365067	0.000000	6.365067
O	6.365067	2.121689	4.243378
Tl	6.365067	2.121689	6.365067
As	4.243378	4.243378	0.000000
O	4.243378	6.365067	2.121689
O	6.365067	4.243378	2.121689
O	6.365067	6.365067	0.000000
Tl	6.365067	6.365067	2.121689
As	4.243378	4.243378	4.243378
O	4.243378	6.365067	6.365067
O	6.365067	4.243378	6.365067
O	6.365067	6.365067	4.243378
Tl	6.365067	6.365067	6.365067
