40

Mo	1.976548	1.976548	1.976548
O	0.000000	1.976548	1.976548
O	1.976548	0.000000	1.976548
O	1.976548	1.976548	0.000000
Ru	0.000000	0.000000	0.000000
Mo	1.976548	1.976548	5.929644
O	0.000000	1.976548	5.929644
O	1.976548	0.000000	5.929644
O	1.976548	1.976548	3.953096
Ru	0.000000	0.000000	3.953096
Mo	1.976548	5.929644	1.976548
O	0.000000	5.929644	1.976548
O	1.976548	3.953096	1.976548
O	1.976548	5.929644	0.000000
Ru	0.000000	3.953096	0.000000
Mo	1.976548	5.929644	5.929644
O	0.000000	5.929644	5.929644
O	1.976548	3.953096	5.929644
O	1.976548	5.929644	3.953096
Ru	0.000000	3.953096	3.953096
Mo	5.929644	1.976548	1.976548
O	3.953096	1.976548	1.976548
O	5.929644	0.000000	1.976548
O	5.929644	1.976548	0.000000
Ru	3.953096	0.000000	0.000000
Mo	5.929644	1.976548	5.929644
O	3.953096	1.976548	5.929644
O	5.929644	0.000000	5.929644
O	5.929644	1.976548	3.953096
Ru	3.953096	0.000000	3.953096
Mo	5.929644	5.929644	1.976548
O	3.953096	5.929644	1.976548
O	5.929644	3.953096	1.976548
O	5.929644	5.929644	0.000000
Ru	3.953096	3.953096	0.000000
Mo	5.929644	5.929644	5.929644
O	3.953096	5.929644	5.929644
O	5.929644	3.953096	5.929644
O	5.929644	5.929644	3.953096
Ru	3.953096	3.953096	3.953096
