40

O	1.959720	1.959720	0.000000
O	0.000000	1.959720	1.959720
O	1.959720	0.000000	1.959720
Sr_sv	0.000000	0.000000	0.000000
Zn	1.959720	1.959720	1.959720
O	1.959720	1.959720	3.919432
O	0.000000	1.959720	5.879152
O	1.959720	0.000000	5.879152
Sr_sv	0.000000	0.000000	3.919432
Zn	1.959720	1.959720	5.879152
O	1.959720	5.879152	0.000000
O	0.000000	5.879152	1.959720
O	1.959720	3.919432	1.959720
Sr_sv	0.000000	3.919432	0.000000
Zn	1.959720	5.879152	1.959720
O	1.959720	5.879152	3.919432
O	0.000000	5.879152	5.879152
O	1.959720	3.919432	5.879152
Sr_sv	0.000000	3.919432	3.919432
Zn	1.959720	5.879152	5.879152
O	5.879152	1.959720	0.000000
O	3.919432	1.959720	1.959720
O	5.879152	0.000000	1.959720
Sr_sv	3.919432	0.000000	0.000000
Zn	5.879152	1.959720	1.959720
O	5.879152	1.959720	3.919432
O	3.919432	1.959720	5.879152
O	5.879152	0.000000	5.879152
Sr_sv	3.919432	0.000000	3.919432
Zn	5.879152	1.959720	5.879152
O	5.879152	5.879152	0.000000
O	3.919432	5.879152	1.959720
O	5.879152	3.919432	1.959720
Sr_sv	3.919432	3.919432	0.000000
Zn	5.879152	5.879152	1.959720
O	5.879152	5.879152	3.919432
O	3.919432	5.879152	5.879152
O	5.879152	3.919432	5.879152
Sr_sv	3.919432	3.919432	3.919432
Zn	5.879152	5.879152	5.879152
