40

O	0.000000	2.289170	2.289170
O	2.289170	0.000000	2.289170
O	2.289170	2.289170	0.000000
Sr	2.289170	2.289170	2.289170
Zn	0.000000	0.000000	0.000000
O	0.000000	2.289170	6.867510
O	2.289170	0.000000	6.867510
O	2.289170	2.289170	4.578340
Sr	2.289170	2.289170	6.867510
Zn	0.000000	0.000000	4.578340
O	0.000000	6.867510	2.289170
O	2.289170	4.578340	2.289170
O	2.289170	6.867510	0.000000
Sr	2.289170	6.867510	2.289170
Zn	0.000000	4.578340	0.000000
O	0.000000	6.867510	6.867510
O	2.289170	4.578340	6.867510
O	2.289170	6.867510	4.578340
Sr	2.289170	6.867510	6.867510
Zn	0.000000	4.578340	4.578340
O	4.578340	2.289170	2.289170
O	6.867510	0.000000	2.289170
O	6.867510	2.289170	0.000000
Sr	6.867510	2.289170	2.289170
Zn	4.578340	0.000000	0.000000
O	4.578340	2.289170	6.867510
O	6.867510	0.000000	6.867510
O	6.867510	2.289170	4.578340
Sr	6.867510	2.289170	6.867510
Zn	4.578340	0.000000	4.578340
O	4.578340	6.867510	2.289170
O	6.867510	4.578340	2.289170
O	6.867510	6.867510	0.000000
Sr	6.867510	6.867510	2.289170
Zn	4.578340	4.578340	0.000000
O	4.578340	6.867510	6.867510
O	6.867510	4.578340	6.867510
O	6.867510	6.867510	4.578340
Sr	6.867510	6.867510	6.867510
Zn	4.578340	4.578340	4.578340
