40

Ca	0.000000	0.000000	0.000000
Nb	2.008101	2.008101	2.008101
O	2.008101	2.008101	0.000000
O	2.008101	0.000000	2.008101
O	0.000000	2.008101	2.008101
Ca	0.000000	0.000000	4.016187
Nb	2.008101	2.008101	6.024288
O	2.008101	2.008101	4.016187
O	2.008101	0.000000	6.024288
O	0.000000	2.008101	6.024288
Ca	0.000000	4.016187	0.000000
Nb	2.008101	6.024288	2.008101
O	2.008101	6.024288	0.000000
O	2.008101	4.016187	2.008101
O	0.000000	6.024288	2.008101
Ca	0.000000	4.016187	4.016187
Nb	2.008101	6.024288	6.024288
O	2.008101	6.024288	4.016187
O	2.008101	4.016187	6.024288
O	0.000000	6.024288	6.024288
Ca	4.016187	0.000000	0.000000
Nb	6.024288	2.008101	2.008101
O	6.024288	2.008101	0.000000
O	6.024288	0.000000	2.008101
O	4.016187	2.008101	2.008101
Ca	4.016187	0.000000	4.016187
Nb	6.024288	2.008101	6.024288
O	6.024288	2.008101	4.016187
O	6.024288	0.000000	6.024288
O	4.016187	2.008101	6.024288
Ca	4.016187	4.016187	0.000000
Nb	6.024288	6.024288	2.008101
O	6.024288	6.024288	0.000000
O	6.024288	4.016187	2.008101
O	4.016187	6.024288	2.008101
Ca	4.016187	4.016187	4.016187
Nb	6.024288	6.024288	6.024288
O	6.024288	6.024288	4.016187
O	6.024288	4.016187	6.024288
O	4.016187	6.024288	6.024288
