112

O	3.458177	-0.982772	-0.982772
O	-0.983410	0.982772	-3.459805
O	0.983409	-0.982772	-3.459805
O	1.237384	1.238517	-1.238517
O	5.424996	0.982772	-0.982772
O	1.237384	3.204061	-3.204061
O	3.204203	3.204061	-1.238517
O	3.204203	1.238517	-3.204061
Ru	0.000000	0.000000	0.000000
Ru	2.220793	-2.221289	-2.221289
Ta	-1.110397	-1.110644	-3.331933
Ta	3.331190	1.110644	-1.110644
Ta	5.551983	-1.110644	-1.110644
Ta	1.110397	1.110644	-3.331933
O	7.899763	3.459805	-0.982772
O	3.458177	5.425350	-3.459805
O	5.424996	3.459805	-3.459805
O	5.678970	5.681094	-1.238517
O	9.866582	5.425350	-0.982772
O	5.678970	7.646639	-3.204061
O	7.645789	7.646639	-1.238517
O	7.645789	5.681094	-3.204061
Ru	4.441586	4.442578	0.000000
Ru	6.662379	2.221289	-2.221289
Ta	3.331190	3.331933	-3.331933
Ta	7.772776	5.553222	-1.110644
Ta	9.993569	3.331933	-1.110644
Ta	5.551983	5.553222	-3.331933
O	-0.983409	-0.982772	-5.425350
O	-5.424996	0.982772	-7.902383
O	-3.458177	-0.982772	-7.902383
O	-3.204203	1.238517	-5.681094
O	0.983410	0.982772	-5.425350
O	-3.204203	3.204061	-7.646639
O	-1.237384	3.204061	-5.681094
O	-1.237384	1.238517	-7.646639
Ru	-4.441586	0.000000	-4.442578
Ru	-2.220793	-2.221289	-6.663866
Ta	-5.551983	-1.110644	-7.774511
Ta	-1.110397	1.110644	-5.553222
Ta	1.110397	-1.110644	-5.553222
Ta	-3.331190	1.110644	-7.774511
O	3.458177	3.459805	-5.425350
O	-0.983410	5.425350	-7.902383
O	0.983409	3.459805	-7.902383
O	1.237384	5.681094	-5.681094
O	5.424996	5.425350	-5.425350
O	1.237384	7.646639	-7.646639
O	3.204203	7.646639	-5.681094
O	3.204203	5.681094	-7.646639
Ru	0.000000	4.442578	-4.442578
Ru	2.220793	2.221289	-6.663866
Ta	-1.110397	3.331933	-7.774511
Ta	3.331190	5.553222	-5.553222
Ta	5.551983	3.331933	-5.553222
Ta	1.110397	5.553222	-7.774511
O	7.899763	-5.425350	-0.982772
O	3.458177	-3.459805	-3.459805
O	5.424996	-5.425350	-3.459805
O	5.678970	-3.204061	-1.238517
O	9.866582	-3.459805	-0.982772
O	5.678970	-1.238517	-3.204061
O	7.645789	-1.238517	-1.238517
O	7.645789	-3.204061	-3.204061
Ru	4.441586	-4.442578	0.000000
Ru	6.662379	-6.663866	-2.221289
Ta	3.331190	-5.553222	-3.331933
Ta	7.772776	-3.331933	-1.110644
Ta	9.993569	-5.553222	-1.110644
Ta	5.551983	-3.331933	-3.331933
O	12.341349	-0.982772	-0.982772
O	7.899763	0.982772	-3.459805
O	9.866582	-0.982772	-3.459805
O	10.120556	1.238517	-1.238517
O	14.308168	0.982772	-0.982772
O	10.120556	3.204061	-3.204061
O	12.087375	3.204061	-1.238517
O	12.087375	1.238517	-3.204061
Ru	8.883172	0.000000	0.000000
Ru	11.103965	-2.221289	-2.221289
Ta	7.772776	-1.110644	-3.331933
Ta	12.214362	1.110644	-1.110644
Ta	14.435155	-1.110644	-1.110644
Ta	9.993569	1.110644	-3.331933
O	3.458177	-5.425350	-5.425350
O	-0.983410	-3.459805	-7.902383
O	0.983409	-5.425350	-7.902383
O	1.237384	-3.204061	-5.681094
O	5.424996	-3.459805	-5.425350
O	1.237384	-1.238517	-7.646639
O	3.204203	-1.238517	-5.681094
O	3.204203	-3.204061	-7.646639
Ru	0.000000	-4.442578	-4.442578
Ru	2.220793	-6.663866	-6.663866
Ta	-1.110397	-5.553222	-7.774511
Ta	3.331190	-3.331933	-5.553222
Ta	5.551983	-5.553222	-5.553222
Ta	1.110397	-3.331933	-7.774511
O	7.899763	-0.982772	-5.425350
O	3.458177	0.982772	-7.902383
O	5.424996	-0.982772	-7.902383
O	5.678970	1.238517	-5.681094
O	9.866582	0.982772	-5.425350
O	5.678970	3.204061	-7.646639
O	7.645789	3.204061	-5.681094
O	7.645789	1.238517	-7.646639
Ru	4.441586	0.000000	-4.442578
Ru	6.662379	-2.221289	-6.663866
Ta	3.331190	-1.110644	-7.774511
Ta	7.772776	1.110644	-5.553222
Ta	9.993569	-1.110644	-5.553222
Ta	5.551983	1.110644	-7.774511
