40

Ni	1.795409	1.795409	1.795409
O	1.795409	1.795409	0.000000
O	1.795409	0.000000	1.795409
O	0.000000	1.795409	1.795409
Ti	0.000000	0.000000	0.000000
Ni	1.795409	1.795409	5.386227
O	1.795409	1.795409	3.590818
O	1.795409	0.000000	5.386227
O	0.000000	1.795409	5.386227
Ti	0.000000	0.000000	3.590818
Ni	1.795409	5.386227	1.795409
O	1.795409	5.386227	0.000000
O	1.795409	3.590818	1.795409
O	0.000000	5.386227	1.795409
Ti	0.000000	3.590818	0.000000
Ni	1.795409	5.386227	5.386227
O	1.795409	5.386227	3.590818
O	1.795409	3.590818	5.386227
O	0.000000	5.386227	5.386227
Ti	0.000000	3.590818	3.590818
Ni	5.386227	1.795409	1.795409
O	5.386227	1.795409	0.000000
O	5.386227	0.000000	1.795409
O	3.590818	1.795409	1.795409
Ti	3.590818	0.000000	0.000000
Ni	5.386227	1.795409	5.386227
O	5.386227	1.795409	3.590818
O	5.386227	0.000000	5.386227
O	3.590818	1.795409	5.386227
Ti	3.590818	0.000000	3.590818
Ni	5.386227	5.386227	1.795409
O	5.386227	5.386227	0.000000
O	5.386227	3.590818	1.795409
O	3.590818	5.386227	1.795409
Ti	3.590818	3.590818	0.000000
Ni	5.386227	5.386227	5.386227
O	5.386227	5.386227	3.590818
O	5.386227	3.590818	5.386227
O	3.590818	5.386227	5.386227
Ti	3.590818	3.590818	3.590818
