40

F	0.000000	0.000000	0.000000
Li	1.931999	1.931999	1.931999
O	0.000000	1.931999	1.931999
O	1.931999	0.000000	1.931999
O	1.931999	1.931999	0.000000
F	0.000000	0.000000	3.863999
Li	1.931999	1.931999	5.795998
O	0.000000	1.931999	5.795998
O	1.931999	0.000000	5.795998
O	1.931999	1.931999	3.863999
F	0.000000	3.863999	0.000000
Li	1.931999	5.795998	1.931999
O	0.000000	5.795998	1.931999
O	1.931999	3.863999	1.931999
O	1.931999	5.795998	0.000000
F	0.000000	3.863999	3.863999
Li	1.931999	5.795998	5.795998
O	0.000000	5.795998	5.795998
O	1.931999	3.863999	5.795998
O	1.931999	5.795998	3.863999
F	3.863999	0.000000	0.000000
Li	5.795998	1.931999	1.931999
O	3.863999	1.931999	1.931999
O	5.795998	0.000000	1.931999
O	5.795998	1.931999	0.000000
F	3.863999	0.000000	3.863999
Li	5.795998	1.931999	5.795998
O	3.863999	1.931999	5.795998
O	5.795998	0.000000	5.795998
O	5.795998	1.931999	3.863999
F	3.863999	3.863999	0.000000
Li	5.795998	5.795998	1.931999
O	3.863999	5.795998	1.931999
O	5.795998	3.863999	1.931999
O	5.795998	5.795998	0.000000
F	3.863999	3.863999	3.863999
Li	5.795998	5.795998	5.795998
O	3.863999	5.795998	5.795998
O	5.795998	3.863999	5.795998
O	5.795998	5.795998	3.863999
