40

Hf	2.034511	2.034511	2.034511
Ni	0.000000	0.000000	0.000000
O	0.000000	2.034511	2.034511
O	2.034511	0.000000	2.034511
O	2.034511	2.034511	0.000000
Hf	2.034511	2.034511	6.103534
Ni	0.000000	0.000000	4.069023
O	0.000000	2.034511	6.103534
O	2.034511	0.000000	6.103534
O	2.034511	2.034511	4.069023
Hf	2.034511	6.103534	2.034511
Ni	0.000000	4.069023	0.000000
O	0.000000	6.103534	2.034511
O	2.034511	4.069023	2.034511
O	2.034511	6.103534	0.000000
Hf	2.034511	6.103534	6.103534
Ni	0.000000	4.069023	4.069023
O	0.000000	6.103534	6.103534
O	2.034511	4.069023	6.103534
O	2.034511	6.103534	4.069023
Hf	6.103534	2.034511	2.034511
Ni	4.069023	0.000000	0.000000
O	4.069023	2.034511	2.034511
O	6.103534	0.000000	2.034511
O	6.103534	2.034511	0.000000
Hf	6.103534	2.034511	6.103534
Ni	4.069023	0.000000	4.069023
O	4.069023	2.034511	6.103534
O	6.103534	0.000000	6.103534
O	6.103534	2.034511	4.069023
Hf	6.103534	6.103534	2.034511
Ni	4.069023	4.069023	0.000000
O	4.069023	6.103534	2.034511
O	6.103534	4.069023	2.034511
O	6.103534	6.103534	0.000000
Hf	6.103534	6.103534	6.103534
Ni	4.069023	4.069023	4.069023
O	4.069023	6.103534	6.103534
O	6.103534	4.069023	6.103534
O	6.103534	6.103534	4.069023
