112

Ag	0.000000	0.000000	0.000000
Ag	2.499825	-2.502074	-2.502074
K	-1.249902	-1.251047	-3.753122
K	6.249542	-1.251047	-1.251047
K	1.249902	1.251047	-3.753122
K	3.749727	1.251047	-1.251047
O	1.110212	1.113477	-1.113477
O	3.610037	-1.388608	-1.388608
O	-1.389603	1.388608	-3.615561
O	1.389603	-1.388608	-3.615561
O	1.110212	3.890682	-3.890682
O	3.889417	1.113477	-3.890682
O	3.889417	3.890682	-1.113477
O	6.389232	1.388608	-1.388608
Ag	4.999633	5.004160	0.000000
Ag	7.499458	2.502086	-2.502074
K	3.749731	3.753113	-3.753122
K	11.249175	3.753113	-1.251047
K	6.249536	6.255207	-3.753122
K	8.749360	6.255207	-1.251047
O	6.109846	6.117637	-1.113477
O	8.609670	3.615552	-1.388608
O	3.610031	6.392768	-3.615561
O	6.389236	3.615552	-3.615561
O	6.109846	8.894842	-3.890682
O	8.889051	6.117637	-3.890682
O	8.889051	8.894842	-1.113477
O	11.388865	6.392768	-1.388608
Ag	-4.999633	0.000000	-5.004160
Ag	-2.499809	-2.502074	-7.506234
K	-6.249536	-1.251047	-8.757282
K	1.249908	-1.251047	-6.255207
K	-3.749731	1.251047	-8.757282
K	-1.249906	1.251047	-6.255207
O	-3.889421	1.113477	-6.117637
O	-1.389597	-1.388608	-6.392768
O	-6.389236	1.388608	-8.619721
O	-3.610031	-1.388608	-8.619721
O	-3.889421	3.890682	-8.894842
O	-1.110216	1.113477	-8.894842
O	-1.110216	3.890682	-6.117637
O	1.389599	1.388608	-6.392768
Ag	0.000000	5.004160	-5.004160
Ag	2.499825	2.502086	-7.506234
K	-1.249902	3.753113	-8.757282
K	6.249542	3.753113	-6.255207
K	1.249902	6.255207	-8.757282
K	3.749727	6.255207	-6.255207
O	1.110212	6.117637	-6.117637
O	3.610037	3.615552	-6.392768
O	-1.389603	6.392768	-8.619721
O	1.389603	3.615552	-8.619721
O	1.110212	8.894842	-8.894842
O	3.889417	6.117637	-8.894842
O	3.889417	8.894842	-6.117637
O	6.389232	6.392768	-6.392768
Ag	4.999633	-5.004160	0.000000
Ag	7.499458	-7.506234	-2.502074
K	3.749731	-6.255207	-3.753122
K	11.249175	-6.255207	-1.251047
K	6.249536	-3.753113	-3.753122
K	8.749360	-3.753113	-1.251047
O	6.109846	-3.890683	-1.113477
O	8.609670	-6.392768	-1.388608
O	3.610031	-3.615552	-3.615561
O	6.389236	-6.392768	-3.615561
O	6.109846	-1.113478	-3.890682
O	8.889051	-3.890683	-3.890682
O	8.889051	-1.113478	-1.113477
O	11.388865	-3.615552	-1.388608
Ag	9.999267	0.000000	0.000000
Ag	12.499091	-2.502074	-2.502074
K	8.749364	-1.251047	-3.753122
K	16.248809	-1.251047	-1.251047
K	11.249169	1.251047	-3.753122
K	13.748994	1.251047	-1.251047
O	11.109479	1.113477	-1.113477
O	13.609304	-1.388608	-1.388608
O	8.609664	1.388608	-3.615561
O	11.388869	-1.388608	-3.615561
O	11.109479	3.890682	-3.890682
O	13.888684	1.113477	-3.890682
O	13.888684	3.890682	-1.113477
O	16.388499	1.388608	-1.388608
Ag	0.000000	-5.004160	-5.004160
Ag	2.499825	-7.506234	-7.506234
K	-1.249902	-6.255207	-8.757282
K	6.249542	-6.255207	-6.255207
K	1.249902	-3.753113	-8.757282
K	3.749727	-3.753113	-6.255207
O	1.110212	-3.890683	-6.117637
O	3.610037	-6.392768	-6.392768
O	-1.389603	-3.615552	-8.619721
O	1.389603	-6.392768	-8.619721
O	1.110212	-1.113478	-8.894842
O	3.889417	-3.890683	-8.894842
O	3.889417	-1.113478	-6.117637
O	6.389232	-3.615552	-6.392768
Ag	4.999633	0.000000	-5.004160
Ag	7.499458	-2.502074	-7.506234
K	3.749731	-1.251047	-8.757282
K	11.249175	-1.251047	-6.255207
K	6.249536	1.251047	-8.757282
K	8.749360	1.251047	-6.255207
O	6.109846	1.113477	-6.117637
O	8.609670	-1.388608	-6.392768
O	3.610031	1.388608	-8.619721
O	6.389236	-1.388608	-8.619721
O	6.109846	3.890682	-8.894842
O	8.889051	1.113477	-8.894842
O	8.889051	3.890682	-6.117637
O	11.388865	1.388608	-6.392768
