40

Au	2.052516	2.052516	2.052516
O	2.052516	2.052516	0.000000
O	2.052516	0.000000	2.052516
O	0.000000	2.052516	2.052516
Pb	0.000000	0.000000	0.000000
Au	2.052516	2.052516	6.157558
O	2.052516	2.052516	4.105042
O	2.052516	0.000000	6.157558
O	0.000000	2.052516	6.157558
Pb	0.000000	0.000000	4.105042
Au	2.052516	6.157558	2.052516
O	2.052516	6.157558	0.000000
O	2.052516	4.105042	2.052516
O	0.000000	6.157558	2.052516
Pb	0.000000	4.105042	0.000000
Au	2.052516	6.157558	6.157558
O	2.052516	6.157558	4.105042
O	2.052516	4.105042	6.157558
O	0.000000	6.157558	6.157558
Pb	0.000000	4.105042	4.105042
Au	6.157558	2.052516	2.052516
O	6.157558	2.052516	0.000000
O	6.157558	0.000000	2.052516
O	4.105042	2.052516	2.052516
Pb	4.105042	0.000000	0.000000
Au	6.157558	2.052516	6.157558
O	6.157558	2.052516	4.105042
O	6.157558	0.000000	6.157558
O	4.105042	2.052516	6.157558
Pb	4.105042	0.000000	4.105042
Au	6.157558	6.157558	2.052516
O	6.157558	6.157558	0.000000
O	6.157558	4.105042	2.052516
O	4.105042	6.157558	2.052516
Pb	4.105042	4.105042	0.000000
Au	6.157558	6.157558	6.157558
O	6.157558	6.157558	4.105042
O	6.157558	4.105042	6.157558
O	4.105042	6.157558	6.157558
Pb	4.105042	4.105042	4.105042
