176

O	5.427460	3.837794	9.400636
O	3.256476	2.302676	5.640382
O	4.172590	5.612448	11.574136
O	2.001606	4.077331	7.813881
O	6.682330	2.063139	11.574136
O	7.937201	5.612448	9.400636
O	2.917719	2.063139	9.400636
O	4.172590	5.612448	7.227137
O	6.682330	2.063139	7.227137
O	5.766217	4.077331	5.640382
O	0.746735	0.528022	5.640382
O	4.511346	0.528022	3.466883
O	4.511346	0.528022	7.813881
O	2.001606	4.077331	3.466883
Sn	1.085492	3.070235	1.880127
Sn	3.256476	0.000000	1.880127
Sn	0.000000	0.000000	3.760255
Sn	0.000000	0.000000	0.000000
Sm	3.256476	0.000000	5.640382
Sm	1.085492	3.070235	5.640382
Sm	4.341968	3.070235	3.760255
Sm	4.341968	3.070235	7.520509
O	5.427460	3.837794	16.921146
O	3.256476	2.302676	13.160891
O	4.172590	5.612448	19.094645
O	2.001606	4.077331	15.334390
O	6.682330	2.063139	19.094645
O	7.937201	5.612448	16.921146
O	2.917719	2.063139	16.921146
O	4.172590	5.612448	14.747646
O	6.682330	2.063139	14.747646
O	5.766217	4.077331	13.160891
O	0.746735	0.528022	13.160891
O	4.511346	0.528022	10.987392
O	4.511346	0.528022	15.334390
O	2.001606	4.077331	10.987392
Sn	1.085492	3.070235	9.400636
Sn	3.256476	0.000000	9.400636
Sn	0.000000	0.000000	11.280764
Sn	0.000000	0.000000	7.520509
Sm	3.256476	0.000000	13.160891
Sm	1.085492	3.070235	13.160891
Sm	4.341968	3.070235	11.280764
Sm	4.341968	3.070235	15.041018
O	7.598444	9.978264	13.160891
O	5.427460	8.443146	9.400636
O	6.343574	11.752918	15.334390
O	4.172590	10.217801	11.574136
O	8.853314	8.203609	15.334390
O	10.108185	11.752918	13.160891
O	5.088703	8.203609	13.160891
O	6.343574	11.752918	10.987392
O	8.853314	8.203609	10.987392
O	7.937201	10.217801	9.400636
O	2.917719	6.668492	9.400636
O	6.682330	6.668492	7.227137
O	6.682330	6.668492	11.574136
O	4.172590	10.217801	7.227137
Sn	3.256476	9.210705	5.640382
Sn	5.427460	6.140470	5.640382
Sn	2.170984	6.140470	7.520509
Sn	2.170984	6.140470	3.760255
Sm	5.427460	6.140470	9.400636
Sm	3.256476	9.210705	9.400636
Sm	6.512952	9.210705	7.520509
Sm	6.512952	9.210705	11.280764
O	7.598444	9.978264	20.681400
O	5.427460	8.443146	16.921146
O	6.343574	11.752918	22.854899
O	4.172590	10.217801	19.094645
O	8.853314	8.203609	22.854899
O	10.108185	11.752918	20.681400
O	5.088703	8.203609	20.681400
O	6.343574	11.752918	18.507901
O	8.853314	8.203609	18.507901
O	7.937201	10.217801	16.921146
O	2.917719	6.668492	16.921146
O	6.682330	6.668492	14.747646
O	6.682330	6.668492	19.094645
O	4.172590	10.217801	14.747646
Sn	3.256476	9.210705	13.160891
Sn	5.427460	6.140470	13.160891
Sn	2.170984	6.140470	15.041018
Sn	2.170984	6.140470	11.280764
Sm	5.427460	6.140470	16.921146
Sm	3.256476	9.210705	16.921146
Sm	6.512952	9.210705	15.041018
Sm	6.512952	9.210705	18.801273
O	11.940412	3.837794	13.160891
O	9.769428	2.302676	9.400636
O	10.685542	5.612448	15.334390
O	8.514558	4.077331	11.574136
O	13.195282	2.063139	15.334390
O	14.450153	5.612448	13.160891
O	9.430671	2.063139	13.160891
O	10.685542	5.612448	10.987392
O	13.195282	2.063139	10.987392
O	12.279169	4.077331	9.400636
O	7.259687	0.528022	9.400636
O	11.024298	0.528022	7.227137
O	11.024298	0.528022	11.574136
O	8.514558	4.077331	7.227137
Sn	7.598444	3.070235	5.640382
Sn	9.769428	0.000000	5.640382
Sn	6.512952	0.000000	7.520509
Sn	6.512952	0.000000	3.760255
Sm	9.769428	0.000000	9.400636
Sm	7.598444	3.070235	9.400636
Sm	10.854920	3.070235	7.520509
Sm	10.854920	3.070235	11.280764
O	11.940412	3.837794	20.681400
O	9.769428	2.302676	16.921146
O	10.685542	5.612448	22.854899
O	8.514558	4.077331	19.094645
O	13.195282	2.063139	22.854899
O	14.450153	5.612448	20.681400
O	9.430671	2.063139	20.681400
O	10.685542	5.612448	18.507901
O	13.195282	2.063139	18.507901
O	12.279169	4.077331	16.921146
O	7.259687	0.528022	16.921146
O	11.024298	0.528022	14.747646
O	11.024298	0.528022	19.094645
O	8.514558	4.077331	14.747646
Sn	7.598444	3.070235	13.160891
Sn	9.769428	0.000000	13.160891
Sn	6.512952	0.000000	15.041018
Sn	6.512952	0.000000	11.280764
Sm	9.769428	0.000000	16.921146
Sm	7.598444	3.070235	16.921146
Sm	10.854920	3.070235	15.041018
Sm	10.854920	3.070235	18.801273
O	14.111396	9.978264	16.921146
O	11.940412	8.443146	13.160891
O	12.856526	11.752918	19.094645
O	10.685542	10.217801	15.334390
O	15.366266	8.203609	19.094645
O	16.621137	11.752918	16.921146
O	11.601655	8.203609	16.921146
O	12.856526	11.752918	14.747646
O	15.366266	8.203609	14.747646
O	14.450153	10.217801	13.160891
O	9.430671	6.668492	13.160891
O	13.195282	6.668492	10.987392
O	13.195282	6.668492	15.334390
O	10.685542	10.217801	10.987392
Sn	9.769428	9.210705	9.400636
Sn	11.940412	6.140470	9.400636
Sn	8.683936	6.140470	11.280764
Sn	8.683936	6.140470	7.520509
Sm	11.940412	6.140470	13.160891
Sm	9.769428	9.210705	13.160891
Sm	13.025904	9.210705	11.280764
Sm	13.025904	9.210705	15.041018
O	14.111396	9.978264	24.441655
O	11.940412	8.443146	20.681400
O	12.856526	11.752918	26.615154
O	10.685542	10.217801	22.854899
O	15.366266	8.203609	26.615154
O	16.621137	11.752918	24.441655
O	11.601655	8.203609	24.441655
O	12.856526	11.752918	22.268156
O	15.366266	8.203609	22.268156
O	14.450153	10.217801	20.681400
O	9.430671	6.668492	20.681400
O	13.195282	6.668492	18.507901
O	13.195282	6.668492	22.854899
O	10.685542	10.217801	18.507901
Sn	9.769428	9.210705	16.921146
Sn	11.940412	6.140470	16.921146
Sn	8.683936	6.140470	18.801273
Sn	8.683936	6.140470	15.041018
Sm	11.940412	6.140470	20.681400
Sm	9.769428	9.210705	20.681400
Sm	13.025904	9.210705	18.801273
Sm	13.025904	9.210705	22.561527
