40

Au	0.000000	0.000000	0.000000
Mg	1.983018	1.983018	1.983018
O	0.000000	1.983018	1.983018
O	1.983018	0.000000	1.983018
O	1.983018	1.983018	0.000000
Au	0.000000	0.000000	3.966035
Mg	1.983018	1.983018	5.949053
O	0.000000	1.983018	5.949053
O	1.983018	0.000000	5.949053
O	1.983018	1.983018	3.966035
Au	0.000000	3.966035	0.000000
Mg	1.983018	5.949053	1.983018
O	0.000000	5.949053	1.983018
O	1.983018	3.966035	1.983018
O	1.983018	5.949053	0.000000
Au	0.000000	3.966035	3.966035
Mg	1.983018	5.949053	5.949053
O	0.000000	5.949053	5.949053
O	1.983018	3.966035	5.949053
O	1.983018	5.949053	3.966035
Au	3.966035	0.000000	0.000000
Mg	5.949053	1.983018	1.983018
O	3.966035	1.983018	1.983018
O	5.949053	0.000000	1.983018
O	5.949053	1.983018	0.000000
Au	3.966035	0.000000	3.966035
Mg	5.949053	1.983018	5.949053
O	3.966035	1.983018	5.949053
O	5.949053	0.000000	5.949053
O	5.949053	1.983018	3.966035
Au	3.966035	3.966035	0.000000
Mg	5.949053	5.949053	1.983018
O	3.966035	5.949053	1.983018
O	5.949053	3.966035	1.983018
O	5.949053	5.949053	0.000000
Au	3.966035	3.966035	3.966035
Mg	5.949053	5.949053	5.949053
O	3.966035	5.949053	5.949053
O	5.949053	3.966035	5.949053
O	5.949053	5.949053	3.966035
