112

Hf	0.000000	0.000000	0.000000
Hf	2.433775	-2.433940	-2.433940
O	1.145801	1.146171	-1.146171
O	-1.287974	1.287769	-3.580111
O	3.579576	-1.287769	-1.287769
O	1.287974	-1.287769	-3.580111
O	1.145801	3.721709	-3.721709
O	3.721760	3.721709	-1.146171
O	3.721760	1.146171	-3.721709
O	6.155535	1.287769	-1.287769
Sr	-1.216893	-1.216970	-3.650910
Sr	1.216893	1.216970	-3.650910
Sr	3.650668	1.216970	-1.216970
Sr	6.084443	-1.216970	-1.216970
Hf	4.867553	4.867884	0.000000
Hf	7.301328	2.433944	-2.433940
O	6.013354	6.014055	-1.146171
O	3.579579	6.155653	-3.580111
O	8.447129	3.580115	-1.287769
O	6.155528	3.580115	-3.580111
O	6.013354	8.589593	-3.721709
O	8.589313	8.589593	-1.146171
O	8.589313	6.014055	-3.721709
O	11.023088	6.155653	-1.287769
Sr	3.650661	3.650914	-3.650910
Sr	6.084446	6.084854	-3.650910
Sr	8.518221	6.084854	-1.216970
Sr	10.951996	3.650914	-1.216970
Hf	-4.867553	0.000000	-4.867884
Hf	-2.433778	-2.433940	-7.301824
O	-3.721752	1.146171	-6.014055
O	-6.155528	1.287769	-8.447995
O	-1.287977	-1.287769	-6.155653
O	-3.579579	-1.287769	-8.447995
O	-3.721752	3.721709	-8.589593
O	-1.145793	3.721709	-6.014055
O	-1.145793	1.146171	-8.589593
O	1.287982	1.287769	-6.155653
Sr	-6.084446	-1.216970	-8.518794
Sr	-3.650660	1.216970	-8.518794
Sr	-1.216885	1.216970	-6.084854
Sr	1.216890	-1.216970	-6.084854
Hf	0.000000	4.867884	-4.867884
Hf	2.433775	2.433944	-7.301824
O	1.145801	6.014055	-6.014055
O	-1.287974	6.155653	-8.447995
O	3.579576	3.580115	-6.155653
O	1.287974	3.580115	-8.447995
O	1.145801	8.589593	-8.589593
O	3.721760	8.589593	-6.014055
O	3.721760	6.014055	-8.589593
O	6.155535	6.155653	-6.155653
Sr	-1.216893	3.650914	-8.518794
Sr	1.216893	6.084854	-8.518794
Sr	3.650668	6.084854	-6.084854
Sr	6.084443	3.650914	-6.084854
Hf	4.867553	-4.867884	0.000000
Hf	7.301328	-7.301824	-2.433940
O	6.013354	-3.721713	-1.146171
O	3.579579	-3.580115	-3.580111
O	8.447129	-6.155653	-1.287769
O	6.155528	-6.155653	-3.580111
O	6.013354	-1.146175	-3.721709
O	8.589313	-1.146175	-1.146171
O	8.589313	-3.721713	-3.721709
O	11.023088	-3.580115	-1.287769
Sr	3.650661	-6.084854	-3.650910
Sr	6.084446	-3.650914	-3.650910
Sr	8.518221	-3.650914	-1.216970
Sr	10.951996	-6.084854	-1.216970
Hf	9.735106	0.000000	0.000000
Hf	12.168881	-2.433940	-2.433940
O	10.880907	1.146171	-1.146171
O	8.447132	1.287769	-3.580111
O	13.314682	-1.287769	-1.287769
O	11.023081	-1.287769	-3.580111
O	10.880907	3.721709	-3.721709
O	13.456866	3.721709	-1.146171
O	13.456866	1.146171	-3.721709
O	15.890641	1.287769	-1.287769
Sr	8.518214	-1.216970	-3.650910
Sr	10.951999	1.216970	-3.650910
Sr	13.385774	1.216970	-1.216970
Sr	15.819549	-1.216970	-1.216970
Hf	0.000000	-4.867884	-4.867884
Hf	2.433775	-7.301824	-7.301824
O	1.145801	-3.721713	-6.014055
O	-1.287974	-3.580115	-8.447995
O	3.579576	-6.155653	-6.155653
O	1.287974	-6.155653	-8.447995
O	1.145801	-1.146175	-8.589593
O	3.721760	-1.146175	-6.014055
O	3.721760	-3.721713	-8.589593
O	6.155535	-3.580115	-6.155653
Sr	-1.216893	-6.084854	-8.518794
Sr	1.216893	-3.650914	-8.518794
Sr	3.650668	-3.650914	-6.084854
Sr	6.084443	-6.084854	-6.084854
Hf	4.867553	0.000000	-4.867884
Hf	7.301328	-2.433940	-7.301824
O	6.013354	1.146171	-6.014055
O	3.579579	1.287769	-8.447995
O	8.447129	-1.287769	-6.155653
O	6.155528	-1.287769	-8.447995
O	6.013354	3.721709	-8.589593
O	8.589313	3.721709	-6.014055
O	8.589313	1.146171	-8.589593
O	11.023088	1.287769	-6.155653
Sr	3.650661	-1.216970	-8.518794
Sr	6.084446	1.216970	-8.518794
Sr	8.518221	1.216970	-6.084854
Sr	10.951996	-1.216970	-6.084854
