40

O	2.164116	2.164116	0.000000
O	2.164116	0.000000	2.164116
O	0.000000	2.164116	2.164116
Pu	2.164116	2.164116	2.164116
Ti	0.000000	0.000000	0.000000
O	2.164116	2.164116	4.328227
O	2.164116	0.000000	6.492342
O	0.000000	2.164116	6.492342
Pu	2.164116	2.164116	6.492342
Ti	0.000000	0.000000	4.328227
O	2.164116	6.492342	0.000000
O	2.164116	4.328227	2.164116
O	0.000000	6.492342	2.164116
Pu	2.164116	6.492342	2.164116
Ti	0.000000	4.328227	0.000000
O	2.164116	6.492342	4.328227
O	2.164116	4.328227	6.492342
O	0.000000	6.492342	6.492342
Pu	2.164116	6.492342	6.492342
Ti	0.000000	4.328227	4.328227
O	6.492342	2.164116	0.000000
O	6.492342	0.000000	2.164116
O	4.328227	2.164116	2.164116
Pu	6.492342	2.164116	2.164116
Ti	4.328227	0.000000	0.000000
O	6.492342	2.164116	4.328227
O	6.492342	0.000000	6.492342
O	4.328227	2.164116	6.492342
Pu	6.492342	2.164116	6.492342
Ti	4.328227	0.000000	4.328227
O	6.492342	6.492342	0.000000
O	6.492342	4.328227	2.164116
O	4.328227	6.492342	2.164116
Pu	6.492342	6.492342	2.164116
Ti	4.328227	4.328227	0.000000
O	6.492342	6.492342	4.328227
O	6.492342	4.328227	6.492342
O	4.328227	6.492342	6.492342
Pu	6.492342	6.492342	6.492342
Ti	4.328227	4.328227	4.328227
