112

O	3.787601	-1.085820	-1.085820
O	-1.086030	1.085820	-3.789285
O	1.086030	-1.085820	-3.789285
O	1.350785	1.351733	-1.351733
O	5.959661	1.085820	-1.085820
O	1.350785	3.523372	-3.523372
O	3.522846	3.523372	-1.351733
O	3.522846	1.351733	-3.523372
U	0.000000	0.000000	0.000000
U	2.436816	-2.437552	-2.437552
Y	-1.218408	-1.218776	-3.656329
Y	3.655223	1.218776	-1.218776
Y	6.092039	-1.218776	-1.218776
Y	1.218408	1.218776	-3.656329
O	8.661232	3.789285	-1.085820
O	3.787601	5.960924	-3.789285
O	5.959661	3.789285	-3.789285
O	6.224417	6.226838	-1.351733
O	10.833292	5.960924	-1.085820
O	6.224417	8.398477	-3.523372
O	8.396477	8.398477	-1.351733
O	8.396477	6.226838	-3.523372
U	4.873631	4.875105	0.000000
U	7.310447	2.437552	-2.437552
Y	3.655223	3.656329	-3.656329
Y	8.528854	6.093881	-1.218776
Y	10.965670	3.656329	-1.218776
Y	6.092039	6.093881	-3.656329
O	-1.086030	-1.085820	-5.960924
O	-5.959661	1.085820	-8.664390
O	-3.787601	-1.085820	-8.664390
O	-3.522846	1.351733	-6.226838
O	1.086030	1.085820	-5.960924
O	-3.522846	3.523372	-8.398477
O	-1.350785	3.523372	-6.226838
O	-1.350785	1.351733	-8.398477
U	-4.873631	0.000000	-4.875105
U	-2.436816	-2.437552	-7.312657
Y	-6.092039	-1.218776	-8.531433
Y	-1.218408	1.218776	-6.093881
Y	1.218408	-1.218776	-6.093881
Y	-3.655223	1.218776	-8.531433
O	3.787601	3.789285	-5.960924
O	-1.086030	5.960924	-8.664390
O	1.086030	3.789285	-8.664390
O	1.350785	6.226838	-6.226838
O	5.959661	5.960924	-5.960924
O	1.350785	8.398477	-8.398477
O	3.522846	8.398477	-6.226838
O	3.522846	6.226838	-8.398477
U	0.000000	4.875105	-4.875105
U	2.436816	2.437552	-7.312657
Y	-1.218408	3.656329	-8.531433
Y	3.655223	6.093881	-6.093881
Y	6.092039	3.656329	-6.093881
Y	1.218408	6.093881	-8.531433
O	8.661232	-5.960924	-1.085820
O	3.787601	-3.789285	-3.789285
O	5.959661	-5.960924	-3.789285
O	6.224417	-3.523372	-1.351733
O	10.833292	-3.789285	-1.085820
O	6.224417	-1.351733	-3.523372
O	8.396477	-1.351733	-1.351733
O	8.396477	-3.523372	-3.523372
U	4.873631	-4.875105	0.000000
U	7.310447	-7.312657	-2.437552
Y	3.655223	-6.093881	-3.656329
Y	8.528854	-3.656329	-1.218776
Y	10.965670	-6.093881	-1.218776
Y	6.092039	-3.656329	-3.656329
O	13.534863	-1.085820	-1.085820
O	8.661232	1.085820	-3.789285
O	10.833292	-1.085820	-3.789285
O	11.098048	1.351733	-1.351733
O	15.706923	1.085820	-1.085820
O	11.098048	3.523372	-3.523372
O	13.270108	3.523372	-1.351733
O	13.270108	1.351733	-3.523372
U	9.747262	0.000000	0.000000
U	12.184078	-2.437552	-2.437552
Y	8.528854	-1.218776	-3.656329
Y	13.402485	1.218776	-1.218776
Y	15.839301	-1.218776	-1.218776
Y	10.965670	1.218776	-3.656329
O	3.787601	-5.960924	-5.960924
O	-1.086030	-3.789285	-8.664390
O	1.086030	-5.960924	-8.664390
O	1.350785	-3.523372	-6.226838
O	5.959661	-3.789285	-5.960924
O	1.350785	-1.351733	-8.398477
O	3.522846	-1.351733	-6.226838
O	3.522846	-3.523372	-8.398477
U	0.000000	-4.875105	-4.875105
U	2.436816	-7.312657	-7.312657
Y	-1.218408	-6.093881	-8.531433
Y	3.655223	-3.656329	-6.093881
Y	6.092039	-6.093881	-6.093881
Y	1.218408	-3.656329	-8.531433
O	8.661232	-1.085820	-5.960924
O	3.787601	1.085820	-8.664390
O	5.959661	-1.085820	-8.664390
O	6.224417	1.351733	-6.226838
O	10.833292	1.085820	-5.960924
O	6.224417	3.523372	-8.398477
O	8.396477	3.523372	-6.226838
O	8.396477	1.351733	-8.398477
U	4.873631	0.000000	-4.875105
U	7.310447	-2.437552	-7.312657
Y	3.655223	-1.218776	-8.531433
Y	8.528854	1.218776	-6.093881
Y	10.965670	-1.218776	-6.093881
Y	6.092039	1.218776	-8.531433
