40

Ca	2.277901	2.277901	2.277901
Cs	0.000000	0.000000	0.000000
O	2.277901	2.277901	0.000000
O	2.277901	0.000000	2.277901
O	0.000000	2.277901	2.277901
Ca	2.277901	2.277901	6.833701
Cs	0.000000	0.000000	4.555799
O	2.277901	2.277901	4.555799
O	2.277901	0.000000	6.833701
O	0.000000	2.277901	6.833701
Ca	2.277901	6.833701	2.277901
Cs	0.000000	4.555799	0.000000
O	2.277901	6.833701	0.000000
O	2.277901	4.555799	2.277901
O	0.000000	6.833701	2.277901
Ca	2.277901	6.833701	6.833701
Cs	0.000000	4.555799	4.555799
O	2.277901	6.833701	4.555799
O	2.277901	4.555799	6.833701
O	0.000000	6.833701	6.833701
Ca	6.833701	2.277901	2.277901
Cs	4.555799	0.000000	0.000000
O	6.833701	2.277901	0.000000
O	6.833701	0.000000	2.277901
O	4.555799	2.277901	2.277901
Ca	6.833701	2.277901	6.833701
Cs	4.555799	0.000000	4.555799
O	6.833701	2.277901	4.555799
O	6.833701	0.000000	6.833701
O	4.555799	2.277901	6.833701
Ca	6.833701	6.833701	2.277901
Cs	4.555799	4.555799	0.000000
O	6.833701	6.833701	0.000000
O	6.833701	4.555799	2.277901
O	4.555799	6.833701	2.277901
Ca	6.833701	6.833701	6.833701
Cs	4.555799	4.555799	4.555799
O	6.833701	6.833701	4.555799
O	6.833701	4.555799	6.833701
O	4.555799	6.833701	6.833701
