40

Cu	1.867190	1.867190	1.867190
Na_pv	0.000000	0.000000	0.000000
O	1.867190	1.867190	0.000000
O	0.000000	1.867190	1.867190
O	1.867190	0.000000	1.867190
Cu	1.867190	1.867190	5.601565
Na_pv	0.000000	0.000000	3.734375
O	1.867190	1.867190	3.734375
O	0.000000	1.867190	5.601565
O	1.867190	0.000000	5.601565
Cu	1.867190	5.601565	1.867190
Na_pv	0.000000	3.734375	0.000000
O	1.867190	5.601565	0.000000
O	0.000000	5.601565	1.867190
O	1.867190	3.734375	1.867190
Cu	1.867190	5.601565	5.601565
Na_pv	0.000000	3.734375	3.734375
O	1.867190	5.601565	3.734375
O	0.000000	5.601565	5.601565
O	1.867190	3.734375	5.601565
Cu	5.601565	1.867190	1.867190
Na_pv	3.734375	0.000000	0.000000
O	5.601565	1.867190	0.000000
O	3.734375	1.867190	1.867190
O	5.601565	0.000000	1.867190
Cu	5.601565	1.867190	5.601565
Na_pv	3.734375	0.000000	3.734375
O	5.601565	1.867190	3.734375
O	3.734375	1.867190	5.601565
O	5.601565	0.000000	5.601565
Cu	5.601565	5.601565	1.867190
Na_pv	3.734375	3.734375	0.000000
O	5.601565	5.601565	0.000000
O	3.734375	5.601565	1.867190
O	5.601565	3.734375	1.867190
Cu	5.601565	5.601565	5.601565
Na_pv	3.734375	3.734375	3.734375
O	5.601565	5.601565	3.734375
O	3.734375	5.601565	5.601565
O	5.601565	3.734375	5.601565
