112

B	0.000000	0.000000	0.000000
B	2.259614	-2.259676	-2.259676
O	3.144373	-1.374776	-1.374776
O	-1.374855	1.374776	-3.144576
O	1.374855	-1.374776	-3.144576
O	0.884759	0.884900	-0.884900
O	5.894083	1.374776	-1.374776
O	0.884759	3.634452	-3.634452
O	3.634469	3.634452	-0.884900
O	3.634469	0.884900	-3.634452
Sr	-1.129807	-1.129838	-3.389514
Sr	3.389421	1.129838	-1.129838
Sr	5.649035	-1.129838	-1.129838
Sr	1.129807	1.129838	-3.389514
B	4.519228	4.519352	0.000000
B	6.778842	2.259676	-2.259676
O	7.663601	3.144576	-1.374776
O	3.144373	5.894128	-3.144576
O	5.894083	3.144576	-3.144576
O	5.403987	5.404253	-0.884900
O	10.413311	5.894128	-1.374776
O	5.403987	8.153804	-3.634452
O	8.153697	8.153804	-0.884900
O	8.153697	5.404253	-3.634452
Sr	3.389421	3.389514	-3.389514
Sr	7.908649	5.649190	-1.129838
Sr	10.168263	3.389514	-1.129838
Sr	5.649035	5.649190	-3.389514
B	-4.519228	0.000000	-4.519352
B	-2.259614	-2.259676	-6.779028
O	-1.374855	-1.374776	-5.894128
O	-5.894083	1.374776	-7.663929
O	-3.144373	-1.374776	-7.663929
O	-3.634469	0.884900	-5.404253
O	1.374855	1.374776	-5.894128
O	-3.634469	3.634452	-8.153804
O	-0.884759	3.634452	-5.404253
O	-0.884759	0.884900	-8.153804
Sr	-5.649035	-1.129838	-7.908867
Sr	-1.129807	1.129838	-5.649190
Sr	1.129807	-1.129838	-5.649190
Sr	-3.389421	1.129838	-7.908867
B	0.000000	4.519352	-4.519352
B	2.259614	2.259676	-6.779028
O	3.144373	3.144576	-5.894128
O	-1.374855	5.894128	-7.663929
O	1.374855	3.144576	-7.663929
O	0.884759	5.404253	-5.404253
O	5.894083	5.894128	-5.894128
O	0.884759	8.153804	-8.153804
O	3.634469	8.153804	-5.404253
O	3.634469	5.404253	-8.153804
Sr	-1.129807	3.389514	-7.908867
Sr	3.389421	5.649190	-5.649190
Sr	5.649035	3.389514	-5.649190
Sr	1.129807	5.649190	-7.908867
B	4.519228	-4.519352	0.000000
B	6.778842	-6.779028	-2.259676
O	7.663601	-5.894128	-1.374776
O	3.144373	-3.144576	-3.144576
O	5.894083	-5.894128	-3.144576
O	5.403987	-3.634452	-0.884900
O	10.413311	-3.144576	-1.374776
O	5.403987	-0.884900	-3.634452
O	8.153697	-0.884900	-0.884900
O	8.153697	-3.634452	-3.634452
Sr	3.389421	-5.649190	-3.389514
Sr	7.908649	-3.389514	-1.129838
Sr	10.168263	-5.649190	-1.129838
Sr	5.649035	-3.389514	-3.389514
B	9.038456	0.000000	0.000000
B	11.298070	-2.259676	-2.259676
O	12.182829	-1.374776	-1.374776
O	7.663601	1.374776	-3.144576
O	10.413311	-1.374776	-3.144576
O	9.923215	0.884900	-0.884900
O	14.932539	1.374776	-1.374776
O	9.923215	3.634452	-3.634452
O	12.672925	3.634452	-0.884900
O	12.672925	0.884900	-3.634452
Sr	7.908649	-1.129838	-3.389514
Sr	12.427877	1.129838	-1.129838
Sr	14.687491	-1.129838	-1.129838
Sr	10.168263	1.129838	-3.389514
B	0.000000	-4.519352	-4.519352
B	2.259614	-6.779028	-6.779028
O	3.144373	-5.894128	-5.894128
O	-1.374855	-3.144576	-7.663929
O	1.374855	-5.894128	-7.663929
O	0.884759	-3.634452	-5.404253
O	5.894083	-3.144576	-5.894128
O	0.884759	-0.884900	-8.153804
O	3.634469	-0.884900	-5.404253
O	3.634469	-3.634452	-8.153804
Sr	-1.129807	-5.649190	-7.908867
Sr	3.389421	-3.389514	-5.649190
Sr	5.649035	-5.649190	-5.649190
Sr	1.129807	-3.389514	-7.908867
B	4.519228	0.000000	-4.519352
B	6.778842	-2.259676	-6.779028
O	7.663601	-1.374776	-5.894128
O	3.144373	1.374776	-7.663929
O	5.894083	-1.374776	-7.663929
O	5.403987	0.884900	-5.404253
O	10.413311	1.374776	-5.894128
O	5.403987	3.634452	-8.153804
O	8.153697	3.634452	-5.404253
O	8.153697	0.884900	-8.153804
Sr	3.389421	-1.129838	-7.908867
Sr	7.908649	1.129838	-5.649190
Sr	10.168263	-1.129838	-5.649190
Sr	5.649035	1.129838	-7.908867
