112

Ir	0.000000	0.000000	0.000000
Ir	2.143198	-2.143742	-2.143742
Mg	-1.071599	-1.071871	-3.215613
Mg	3.214797	1.071871	-1.071871
Mg	5.357995	-1.071871	-1.071871
Mg	1.071599	1.071871	-3.215613
O	3.282063	-1.003861	-1.003861
O	-1.004333	1.003861	-3.283622
O	1.004333	-1.003861	-3.283622
O	1.138865	1.139880	-1.139880
O	5.290729	1.003861	-1.003861
O	1.138865	3.147603	-3.147603
O	3.147531	3.147603	-1.139880
O	3.147531	1.139880	-3.147603
Ir	4.286396	4.287483	0.000000
Ir	6.429594	2.143742	-2.143742
Mg	3.214797	3.215613	-3.215613
Mg	7.501193	5.359354	-1.071871
Mg	9.644391	3.215613	-1.071871
Mg	5.357995	5.359354	-3.215613
O	7.568459	3.283622	-1.003861
O	3.282063	5.291345	-3.283622
O	5.290729	3.283622	-3.283622
O	5.425261	5.427364	-1.139880
O	9.577125	5.291345	-1.003861
O	5.425261	7.435086	-3.147603
O	7.433927	7.435086	-1.139880
O	7.433927	5.427364	-3.147603
Ir	-4.286396	0.000000	-4.287483
Ir	-2.143198	-2.143742	-6.431225
Mg	-5.357995	-1.071871	-7.503096
Mg	-1.071599	1.071871	-5.359354
Mg	1.071599	-1.071871	-5.359354
Mg	-3.214797	1.071871	-7.503096
O	-1.004333	-1.003861	-5.291345
O	-5.290729	1.003861	-7.571105
O	-3.282063	-1.003861	-7.571105
O	-3.147531	1.139880	-5.427364
O	1.004333	1.003861	-5.291345
O	-3.147531	3.147603	-7.435086
O	-1.138865	3.147603	-5.427364
O	-1.138865	1.139880	-7.435086
Ir	0.000000	4.287483	-4.287483
Ir	2.143198	2.143742	-6.431225
Mg	-1.071599	3.215613	-7.503096
Mg	3.214797	5.359354	-5.359354
Mg	5.357995	3.215613	-5.359354
Mg	1.071599	5.359354	-7.503096
O	3.282063	3.283622	-5.291345
O	-1.004333	5.291345	-7.571105
O	1.004333	3.283622	-7.571105
O	1.138865	5.427364	-5.427364
O	5.290729	5.291345	-5.291345
O	1.138865	7.435086	-7.435086
O	3.147531	7.435086	-5.427364
O	3.147531	5.427364	-7.435086
Ir	4.286396	-4.287483	0.000000
Ir	6.429594	-6.431225	-2.143742
Mg	3.214797	-5.359354	-3.215613
Mg	7.501193	-3.215613	-1.071871
Mg	9.644391	-5.359354	-1.071871
Mg	5.357995	-3.215613	-3.215613
O	7.568459	-5.291345	-1.003861
O	3.282063	-3.283622	-3.283622
O	5.290729	-5.291345	-3.283622
O	5.425261	-3.147603	-1.139880
O	9.577125	-3.283622	-1.003861
O	5.425261	-1.139880	-3.147603
O	7.433927	-1.139880	-1.139880
O	7.433927	-3.147603	-3.147603
Ir	8.572792	0.000000	0.000000
Ir	10.715990	-2.143742	-2.143742
Mg	7.501193	-1.071871	-3.215613
Mg	11.787589	1.071871	-1.071871
Mg	13.930787	-1.071871	-1.071871
Mg	9.644391	1.071871	-3.215613
O	11.854855	-1.003861	-1.003861
O	7.568459	1.003861	-3.283622
O	9.577125	-1.003861	-3.283622
O	9.711657	1.139880	-1.139880
O	13.863521	1.003861	-1.003861
O	9.711657	3.147603	-3.147603
O	11.720323	3.147603	-1.139880
O	11.720323	1.139880	-3.147603
Ir	0.000000	-4.287483	-4.287483
Ir	2.143198	-6.431225	-6.431225
Mg	-1.071599	-5.359354	-7.503096
Mg	3.214797	-3.215613	-5.359354
Mg	5.357995	-5.359354	-5.359354
Mg	1.071599	-3.215613	-7.503096
O	3.282063	-5.291345	-5.291345
O	-1.004333	-3.283622	-7.571105
O	1.004333	-5.291345	-7.571105
O	1.138865	-3.147603	-5.427364
O	5.290729	-3.283622	-5.291345
O	1.138865	-1.139880	-7.435086
O	3.147531	-1.139880	-5.427364
O	3.147531	-3.147603	-7.435086
Ir	4.286396	0.000000	-4.287483
Ir	6.429594	-2.143742	-6.431225
Mg	3.214797	-1.071871	-7.503096
Mg	7.501193	1.071871	-5.359354
Mg	9.644391	-1.071871	-5.359354
Mg	5.357995	1.071871	-7.503096
O	7.568459	-1.003861	-5.291345
O	3.282063	1.003861	-7.571105
O	5.290729	-1.003861	-7.571105
O	5.425261	1.139880	-5.427364
O	9.577125	1.003861	-5.291345
O	5.425261	3.147603	-7.435086
O	7.433927	3.147603	-5.427364
O	7.433927	1.139880	-7.435086
