40

B	1.683140	1.683140	1.683140
O	1.683140	1.683140	0.000000
O	0.000000	1.683140	1.683140
O	1.683140	0.000000	1.683140
Rh	0.000000	0.000000	0.000000
B	1.683140	1.683140	5.049424
O	1.683140	1.683140	3.366284
O	0.000000	1.683140	5.049424
O	1.683140	0.000000	5.049424
Rh	0.000000	0.000000	3.366284
B	1.683140	5.049424	1.683140
O	1.683140	5.049424	0.000000
O	0.000000	5.049424	1.683140
O	1.683140	3.366284	1.683140
Rh	0.000000	3.366284	0.000000
B	1.683140	5.049424	5.049424
O	1.683140	5.049424	3.366284
O	0.000000	5.049424	5.049424
O	1.683140	3.366284	5.049424
Rh	0.000000	3.366284	3.366284
B	5.049424	1.683140	1.683140
O	5.049424	1.683140	0.000000
O	3.366284	1.683140	1.683140
O	5.049424	0.000000	1.683140
Rh	3.366284	0.000000	0.000000
B	5.049424	1.683140	5.049424
O	5.049424	1.683140	3.366284
O	3.366284	1.683140	5.049424
O	5.049424	0.000000	5.049424
Rh	3.366284	0.000000	3.366284
B	5.049424	5.049424	1.683140
O	5.049424	5.049424	0.000000
O	3.366284	5.049424	1.683140
O	5.049424	3.366284	1.683140
Rh	3.366284	3.366284	0.000000
B	5.049424	5.049424	5.049424
O	5.049424	5.049424	3.366284
O	3.366284	5.049424	5.049424
O	5.049424	3.366284	5.049424
Rh	3.366284	3.366284	3.366284
