40

B	0.000000	0.000000	0.000000
O	0.000000	1.929319	1.929319
O	1.929319	0.000000	1.929319
O	1.929319	1.929319	0.000000
Rh	1.929319	1.929319	1.929319
B	0.000000	0.000000	3.858638
O	0.000000	1.929319	5.787956
O	1.929319	0.000000	5.787956
O	1.929319	1.929319	3.858638
Rh	1.929319	1.929319	5.787956
B	0.000000	3.858638	0.000000
O	0.000000	5.787956	1.929319
O	1.929319	3.858638	1.929319
O	1.929319	5.787956	0.000000
Rh	1.929319	5.787956	1.929319
B	0.000000	3.858638	3.858638
O	0.000000	5.787956	5.787956
O	1.929319	3.858638	5.787956
O	1.929319	5.787956	3.858638
Rh	1.929319	5.787956	5.787956
B	3.858638	0.000000	0.000000
O	3.858638	1.929319	1.929319
O	5.787956	0.000000	1.929319
O	5.787956	1.929319	0.000000
Rh	5.787956	1.929319	1.929319
B	3.858638	0.000000	3.858638
O	3.858638	1.929319	5.787956
O	5.787956	0.000000	5.787956
O	5.787956	1.929319	3.858638
Rh	5.787956	1.929319	5.787956
B	3.858638	3.858638	0.000000
O	3.858638	5.787956	1.929319
O	5.787956	3.858638	1.929319
O	5.787956	5.787956	0.000000
Rh	5.787956	5.787956	1.929319
B	3.858638	3.858638	3.858638
O	3.858638	5.787956	5.787956
O	5.787956	3.858638	5.787956
O	5.787956	5.787956	3.858638
Rh	5.787956	5.787956	5.787956
