40

O	0.000000	2.219819	2.219819
O	2.219819	0.000000	2.219819
O	2.219819	2.219819	0.000000
S	0.000000	0.000000	0.000000
Y	2.219819	2.219819	2.219819
O	0.000000	2.219819	6.659457
O	2.219819	0.000000	6.659457
O	2.219819	2.219819	4.439638
S	0.000000	0.000000	4.439638
Y	2.219819	2.219819	6.659457
O	0.000000	6.659457	2.219819
O	2.219819	4.439638	2.219819
O	2.219819	6.659457	0.000000
S	0.000000	4.439638	0.000000
Y	2.219819	6.659457	2.219819
O	0.000000	6.659457	6.659457
O	2.219819	4.439638	6.659457
O	2.219819	6.659457	4.439638
S	0.000000	4.439638	4.439638
Y	2.219819	6.659457	6.659457
O	4.439638	2.219819	2.219819
O	6.659457	0.000000	2.219819
O	6.659457	2.219819	0.000000
S	4.439638	0.000000	0.000000
Y	6.659457	2.219819	2.219819
O	4.439638	2.219819	6.659457
O	6.659457	0.000000	6.659457
O	6.659457	2.219819	4.439638
S	4.439638	0.000000	4.439638
Y	6.659457	2.219819	6.659457
O	4.439638	6.659457	2.219819
O	6.659457	4.439638	2.219819
O	6.659457	6.659457	0.000000
S	4.439638	4.439638	0.000000
Y	6.659457	6.659457	2.219819
O	4.439638	6.659457	6.659457
O	6.659457	4.439638	6.659457
O	6.659457	6.659457	4.439638
S	4.439638	4.439638	4.439638
Y	6.659457	6.659457	6.659457
