40

O	0.000000	2.054067	2.054067
O	2.054067	0.000000	2.054067
O	2.054067	2.054067	0.000000
S	0.000000	0.000000	0.000000
Sn	2.054067	2.054067	2.054067
O	0.000000	2.054067	6.162200
O	2.054067	0.000000	6.162200
O	2.054067	2.054067	4.108133
S	0.000000	0.000000	4.108133
Sn	2.054067	2.054067	6.162200
O	0.000000	6.162200	2.054067
O	2.054067	4.108133	2.054067
O	2.054067	6.162200	0.000000
S	0.000000	4.108133	0.000000
Sn	2.054067	6.162200	2.054067
O	0.000000	6.162200	6.162200
O	2.054067	4.108133	6.162200
O	2.054067	6.162200	4.108133
S	0.000000	4.108133	4.108133
Sn	2.054067	6.162200	6.162200
O	4.108133	2.054067	2.054067
O	6.162200	0.000000	2.054067
O	6.162200	2.054067	0.000000
S	4.108133	0.000000	0.000000
Sn	6.162200	2.054067	2.054067
O	4.108133	2.054067	6.162200
O	6.162200	0.000000	6.162200
O	6.162200	2.054067	4.108133
S	4.108133	0.000000	4.108133
Sn	6.162200	2.054067	6.162200
O	4.108133	6.162200	2.054067
O	6.162200	4.108133	2.054067
O	6.162200	6.162200	0.000000
S	4.108133	4.108133	0.000000
Sn	6.162200	6.162200	2.054067
O	4.108133	6.162200	6.162200
O	6.162200	4.108133	6.162200
O	6.162200	6.162200	4.108133
S	4.108133	4.108133	4.108133
Sn	6.162200	6.162200	6.162200
