40

Ga	1.910815	1.910815	1.910815
O	0.000000	1.910815	1.910815
O	1.910815	0.000000	1.910815
O	1.910815	1.910815	0.000000
Si	0.000000	0.000000	0.000000
Ga	1.910815	1.910815	5.732446
O	0.000000	1.910815	5.732446
O	1.910815	0.000000	5.732446
O	1.910815	1.910815	3.821631
Si	0.000000	0.000000	3.821631
Ga	1.910815	5.732446	1.910815
O	0.000000	5.732446	1.910815
O	1.910815	3.821631	1.910815
O	1.910815	5.732446	0.000000
Si	0.000000	3.821631	0.000000
Ga	1.910815	5.732446	5.732446
O	0.000000	5.732446	5.732446
O	1.910815	3.821631	5.732446
O	1.910815	5.732446	3.821631
Si	0.000000	3.821631	3.821631
Ga	5.732446	1.910815	1.910815
O	3.821631	1.910815	1.910815
O	5.732446	0.000000	1.910815
O	5.732446	1.910815	0.000000
Si	3.821631	0.000000	0.000000
Ga	5.732446	1.910815	5.732446
O	3.821631	1.910815	5.732446
O	5.732446	0.000000	5.732446
O	5.732446	1.910815	3.821631
Si	3.821631	0.000000	3.821631
Ga	5.732446	5.732446	1.910815
O	3.821631	5.732446	1.910815
O	5.732446	3.821631	1.910815
O	5.732446	5.732446	0.000000
Si	3.821631	3.821631	0.000000
Ga	5.732446	5.732446	5.732446
O	3.821631	5.732446	5.732446
O	5.732446	3.821631	5.732446
O	5.732446	5.732446	3.821631
Si	3.821631	3.821631	3.821631
