40

Hf	0.000000	0.000000	0.000000
O	0.000000	1.912556	1.912556
O	1.912556	0.000000	1.912556
O	1.912556	1.912556	0.000000
V	1.912556	1.912556	1.912556
Hf	0.000000	0.000000	3.825113
O	0.000000	1.912556	5.737669
O	1.912556	0.000000	5.737669
O	1.912556	1.912556	3.825113
V	1.912556	1.912556	5.737669
Hf	0.000000	3.825113	0.000000
O	0.000000	5.737669	1.912556
O	1.912556	3.825113	1.912556
O	1.912556	5.737669	0.000000
V	1.912556	5.737669	1.912556
Hf	0.000000	3.825113	3.825113
O	0.000000	5.737669	5.737669
O	1.912556	3.825113	5.737669
O	1.912556	5.737669	3.825113
V	1.912556	5.737669	5.737669
Hf	3.825113	0.000000	0.000000
O	3.825113	1.912556	1.912556
O	5.737669	0.000000	1.912556
O	5.737669	1.912556	0.000000
V	5.737669	1.912556	1.912556
Hf	3.825113	0.000000	3.825113
O	3.825113	1.912556	5.737669
O	5.737669	0.000000	5.737669
O	5.737669	1.912556	3.825113
V	5.737669	1.912556	5.737669
Hf	3.825113	3.825113	0.000000
O	3.825113	5.737669	1.912556
O	5.737669	3.825113	1.912556
O	5.737669	5.737669	0.000000
V	5.737669	5.737669	1.912556
Hf	3.825113	3.825113	3.825113
O	3.825113	5.737669	5.737669
O	5.737669	3.825113	5.737669
O	5.737669	5.737669	3.825113
V	5.737669	5.737669	5.737669
