40

Al	0.000000	0.000000	0.000000
Hg	2.086663	2.086663	2.086663
O	2.086663	2.086663	0.000000
O	2.086663	0.000000	2.086663
O	0.000000	2.086663	2.086663
Al	0.000000	0.000000	4.173325
Hg	2.086663	2.086663	6.259988
O	2.086663	2.086663	4.173325
O	2.086663	0.000000	6.259988
O	0.000000	2.086663	6.259988
Al	0.000000	4.173325	0.000000
Hg	2.086663	6.259988	2.086663
O	2.086663	6.259988	0.000000
O	2.086663	4.173325	2.086663
O	0.000000	6.259988	2.086663
Al	0.000000	4.173325	4.173325
Hg	2.086663	6.259988	6.259988
O	2.086663	6.259988	4.173325
O	2.086663	4.173325	6.259988
O	0.000000	6.259988	6.259988
Al	4.173325	0.000000	0.000000
Hg	6.259988	2.086663	2.086663
O	6.259988	2.086663	0.000000
O	6.259988	0.000000	2.086663
O	4.173325	2.086663	2.086663
Al	4.173325	0.000000	4.173325
Hg	6.259988	2.086663	6.259988
O	6.259988	2.086663	4.173325
O	6.259988	0.000000	6.259988
O	4.173325	2.086663	6.259988
Al	4.173325	4.173325	0.000000
Hg	6.259988	6.259988	2.086663
O	6.259988	6.259988	0.000000
O	6.259988	4.173325	2.086663
O	4.173325	6.259988	2.086663
Al	4.173325	4.173325	4.173325
Hg	6.259988	6.259988	6.259988
O	6.259988	6.259988	4.173325
O	6.259988	4.173325	6.259988
O	4.173325	6.259988	6.259988
