64

O	0.000000	0.000000	2.943668
S	2.943668	0.000000	0.000000
S	0.000000	2.943668	0.000000
S	2.943668	2.943668	2.943668
Sr	0.000000	0.000000	0.000000
Sr	2.943668	2.943668	0.000000
Sr	2.943668	0.000000	2.943668
Sr	0.000000	2.943668	2.943668
O	0.000000	0.000000	8.831005
S	2.943668	0.000000	5.887337
S	0.000000	2.943668	5.887337
S	2.943668	2.943668	8.831005
Sr	0.000000	0.000000	5.887337
Sr	2.943668	2.943668	5.887337
Sr	2.943668	0.000000	8.831005
Sr	0.000000	2.943668	8.831005
O	0.000000	5.887337	2.943668
S	2.943668	5.887337	0.000000
S	0.000000	8.831005	0.000000
S	2.943668	8.831005	2.943668
Sr	0.000000	5.887337	0.000000
Sr	2.943668	8.831005	0.000000
Sr	2.943668	5.887337	2.943668
Sr	0.000000	8.831005	2.943668
O	0.000000	5.887337	8.831005
S	2.943668	5.887337	5.887337
S	0.000000	8.831005	5.887337
S	2.943668	8.831005	8.831005
Sr	0.000000	5.887337	5.887337
Sr	2.943668	8.831005	5.887337
Sr	2.943668	5.887337	8.831005
Sr	0.000000	8.831005	8.831005
O	5.887337	0.000000	2.943668
S	8.831005	0.000000	0.000000
S	5.887337	2.943668	0.000000
S	8.831005	2.943668	2.943668
Sr	5.887337	0.000000	0.000000
Sr	8.831005	2.943668	0.000000
Sr	8.831005	0.000000	2.943668
Sr	5.887337	2.943668	2.943668
O	5.887337	0.000000	8.831005
S	8.831005	0.000000	5.887337
S	5.887337	2.943668	5.887337
S	8.831005	2.943668	8.831005
Sr	5.887337	0.000000	5.887337
Sr	8.831005	2.943668	5.887337
Sr	8.831005	0.000000	8.831005
Sr	5.887337	2.943668	8.831005
O	5.887337	5.887337	2.943668
S	8.831005	5.887337	0.000000
S	5.887337	8.831005	0.000000
S	8.831005	8.831005	2.943668
Sr	5.887337	5.887337	0.000000
Sr	8.831005	8.831005	0.000000
Sr	8.831005	5.887337	2.943668
Sr	5.887337	8.831005	2.943668
O	5.887337	5.887337	8.831005
S	8.831005	5.887337	5.887337
S	5.887337	8.831005	5.887337
S	8.831005	8.831005	8.831005
Sr	5.887337	5.887337	5.887337
Sr	8.831005	8.831005	5.887337
Sr	8.831005	5.887337	8.831005
Sr	5.887337	8.831005	8.831005
