40

O	2.121070	2.121070	0.000000
O	0.000000	2.121070	2.121070
O	2.121070	0.000000	2.121070
Sm_3	0.000000	0.000000	0.000000
Te	2.121070	2.121070	2.121070
O	2.121070	2.121070	4.242147
O	0.000000	2.121070	6.363217
O	2.121070	0.000000	6.363217
Sm_3	0.000000	0.000000	4.242147
Te	2.121070	2.121070	6.363217
O	2.121070	6.363217	0.000000
O	0.000000	6.363217	2.121070
O	2.121070	4.242147	2.121070
Sm_3	0.000000	4.242147	0.000000
Te	2.121070	6.363217	2.121070
O	2.121070	6.363217	4.242147
O	0.000000	6.363217	6.363217
O	2.121070	4.242147	6.363217
Sm_3	0.000000	4.242147	4.242147
Te	2.121070	6.363217	6.363217
O	6.363217	2.121070	0.000000
O	4.242147	2.121070	2.121070
O	6.363217	0.000000	2.121070
Sm_3	4.242147	0.000000	0.000000
Te	6.363217	2.121070	2.121070
O	6.363217	2.121070	4.242147
O	4.242147	2.121070	6.363217
O	6.363217	0.000000	6.363217
Sm_3	4.242147	0.000000	4.242147
Te	6.363217	2.121070	6.363217
O	6.363217	6.363217	0.000000
O	4.242147	6.363217	2.121070
O	6.363217	4.242147	2.121070
Sm_3	4.242147	4.242147	0.000000
Te	6.363217	6.363217	2.121070
O	6.363217	6.363217	4.242147
O	4.242147	6.363217	6.363217
O	6.363217	4.242147	6.363217
Sm_3	4.242147	4.242147	4.242147
Te	6.363217	6.363217	6.363217
