40

Fe	0.000000	0.000000	0.000000
Lu	2.105047	2.105047	2.105047
O	2.105047	2.105047	0.000000
O	2.105047	0.000000	2.105047
O	0.000000	2.105047	2.105047
Fe	0.000000	0.000000	4.210104
Lu	2.105047	2.105047	6.315150
O	2.105047	2.105047	4.210104
O	2.105047	0.000000	6.315150
O	0.000000	2.105047	6.315150
Fe	0.000000	4.210104	0.000000
Lu	2.105047	6.315150	2.105047
O	2.105047	6.315150	0.000000
O	2.105047	4.210104	2.105047
O	0.000000	6.315150	2.105047
Fe	0.000000	4.210104	4.210104
Lu	2.105047	6.315150	6.315150
O	2.105047	6.315150	4.210104
O	2.105047	4.210104	6.315150
O	0.000000	6.315150	6.315150
Fe	4.210104	0.000000	0.000000
Lu	6.315150	2.105047	2.105047
O	6.315150	2.105047	0.000000
O	6.315150	0.000000	2.105047
O	4.210104	2.105047	2.105047
Fe	4.210104	0.000000	4.210104
Lu	6.315150	2.105047	6.315150
O	6.315150	2.105047	4.210104
O	6.315150	0.000000	6.315150
O	4.210104	2.105047	6.315150
Fe	4.210104	4.210104	0.000000
Lu	6.315150	6.315150	2.105047
O	6.315150	6.315150	0.000000
O	6.315150	4.210104	2.105047
O	4.210104	6.315150	2.105047
Fe	4.210104	4.210104	4.210104
Lu	6.315150	6.315150	6.315150
O	6.315150	6.315150	4.210104
O	6.315150	4.210104	6.315150
O	4.210104	6.315150	6.315150
