40

Ba	0.000000	0.000000	0.000000
O	2.263224	0.000000	0.000000
O	0.000000	2.263224	0.000000
O	0.000000	0.000000	2.263330
Ti	2.263224	2.263224	2.248330
Ba	0.000000	0.000000	4.526659
O	2.263224	0.000000	4.526659
O	0.000000	2.263224	4.526659
O	0.000000	0.000000	6.789989
Ti	2.263224	2.263224	6.774989
Ba	0.000000	4.526448	0.000000
O	2.263224	4.526448	0.000000
O	0.000000	6.789671	0.000000
O	0.000000	4.526448	2.263330
Ti	2.263224	6.789671	2.248330
Ba	0.000000	4.526448	4.526659
O	2.263224	4.526448	4.526659
O	0.000000	6.789671	4.526659
O	0.000000	4.526448	6.789989
Ti	2.263224	6.789671	6.774989
Ba	4.526448	0.000000	0.000000
O	6.789671	0.000000	0.000000
O	4.526448	2.263224	0.000000
O	4.526448	0.000000	2.263330
Ti	6.789671	2.263224	2.248330
Ba	4.526448	0.000000	4.526659
O	6.789671	0.000000	4.526659
O	4.526448	2.263224	4.526659
O	4.526448	0.000000	6.789989
Ti	6.789671	2.263224	6.774989
Ba	4.526448	4.526448	0.000000
O	6.789671	4.526448	0.000000
O	4.526448	6.789671	0.000000
O	4.526448	4.526448	2.263330
Ti	6.789671	6.789671	2.248330
Ba	4.526448	4.526448	4.526659
O	6.789671	4.526448	4.526659
O	4.526448	6.789671	4.526659
O	4.526448	4.526448	6.789989
Ti	6.789671	6.789671	6.774989
