40

Cs	0.000000	0.000000	0.000000
Ge	2.034089	2.034089	2.034089
O	0.000000	2.034089	2.034089
O	2.034089	0.000000	2.034089
O	2.034089	2.034089	0.000000
Cs	0.000000	0.000000	4.068177
Ge	2.034089	2.034089	6.102266
O	0.000000	2.034089	6.102266
O	2.034089	0.000000	6.102266
O	2.034089	2.034089	4.068177
Cs	0.000000	4.068177	0.000000
Ge	2.034089	6.102266	2.034089
O	0.000000	6.102266	2.034089
O	2.034089	4.068177	2.034089
O	2.034089	6.102266	0.000000
Cs	0.000000	4.068177	4.068177
Ge	2.034089	6.102266	6.102266
O	0.000000	6.102266	6.102266
O	2.034089	4.068177	6.102266
O	2.034089	6.102266	4.068177
Cs	4.068177	0.000000	0.000000
Ge	6.102266	2.034089	2.034089
O	4.068177	2.034089	2.034089
O	6.102266	0.000000	2.034089
O	6.102266	2.034089	0.000000
Cs	4.068177	0.000000	4.068177
Ge	6.102266	2.034089	6.102266
O	4.068177	2.034089	6.102266
O	6.102266	0.000000	6.102266
O	6.102266	2.034089	4.068177
Cs	4.068177	4.068177	0.000000
Ge	6.102266	6.102266	2.034089
O	4.068177	6.102266	2.034089
O	6.102266	4.068177	2.034089
O	6.102266	6.102266	0.000000
Cs	4.068177	4.068177	4.068177
Ge	6.102266	6.102266	6.102266
O	4.068177	6.102266	6.102266
O	6.102266	4.068177	6.102266
O	6.102266	6.102266	4.068177
