40

Cu	0.000000	0.000000	0.000000
O	1.753510	1.753510	0.000000
O	0.000000	1.753510	1.753510
O	1.753510	0.000000	1.753510
Si	1.753510	1.753510	1.753510
Cu	0.000000	0.000000	3.507029
O	1.753510	1.753510	3.507029
O	0.000000	1.753510	5.260539
O	1.753510	0.000000	5.260539
Si	1.753510	1.753510	5.260539
Cu	0.000000	3.507029	0.000000
O	1.753510	5.260539	0.000000
O	0.000000	5.260539	1.753510
O	1.753510	3.507029	1.753510
Si	1.753510	5.260539	1.753510
Cu	0.000000	3.507029	3.507029
O	1.753510	5.260539	3.507029
O	0.000000	5.260539	5.260539
O	1.753510	3.507029	5.260539
Si	1.753510	5.260539	5.260539
Cu	3.507029	0.000000	0.000000
O	5.260539	1.753510	0.000000
O	3.507029	1.753510	1.753510
O	5.260539	0.000000	1.753510
Si	5.260539	1.753510	1.753510
Cu	3.507029	0.000000	3.507029
O	5.260539	1.753510	3.507029
O	3.507029	1.753510	5.260539
O	5.260539	0.000000	5.260539
Si	5.260539	1.753510	5.260539
Cu	3.507029	3.507029	0.000000
O	5.260539	5.260539	0.000000
O	3.507029	5.260539	1.753510
O	5.260539	3.507029	1.753510
Si	5.260539	5.260539	1.753510
Cu	3.507029	3.507029	3.507029
O	5.260539	5.260539	3.507029
O	3.507029	5.260539	5.260539
O	5.260539	3.507029	5.260539
Si	5.260539	5.260539	5.260539
