40

Au	2.027265	2.027265	2.027265
O	0.000000	2.027265	2.027265
O	2.027265	0.000000	2.027265
O	2.027265	2.027265	0.000000
Ru	0.000000	0.000000	0.000000
Au	2.027265	2.027265	6.081796
O	0.000000	2.027265	6.081796
O	2.027265	0.000000	6.081796
O	2.027265	2.027265	4.054531
Ru	0.000000	0.000000	4.054531
Au	2.027265	6.081796	2.027265
O	0.000000	6.081796	2.027265
O	2.027265	4.054531	2.027265
O	2.027265	6.081796	0.000000
Ru	0.000000	4.054531	0.000000
Au	2.027265	6.081796	6.081796
O	0.000000	6.081796	6.081796
O	2.027265	4.054531	6.081796
O	2.027265	6.081796	4.054531
Ru	0.000000	4.054531	4.054531
Au	6.081796	2.027265	2.027265
O	4.054531	2.027265	2.027265
O	6.081796	0.000000	2.027265
O	6.081796	2.027265	0.000000
Ru	4.054531	0.000000	0.000000
Au	6.081796	2.027265	6.081796
O	4.054531	2.027265	6.081796
O	6.081796	0.000000	6.081796
O	6.081796	2.027265	4.054531
Ru	4.054531	0.000000	4.054531
Au	6.081796	6.081796	2.027265
O	4.054531	6.081796	2.027265
O	6.081796	4.054531	2.027265
O	6.081796	6.081796	0.000000
Ru	4.054531	4.054531	0.000000
Au	6.081796	6.081796	6.081796
O	4.054531	6.081796	6.081796
O	6.081796	4.054531	6.081796
O	6.081796	6.081796	4.054531
Ru	4.054531	4.054531	4.054531
