40

Cd	2.205502	2.205502	2.205502
K	0.000000	0.000000	0.000000
O	0.000000	2.205502	2.205502
O	2.205502	0.000000	2.205502
O	2.205502	2.205502	0.000000
Cd	2.205502	2.205502	6.616505
K	0.000000	0.000000	4.411003
O	0.000000	2.205502	6.616505
O	2.205502	0.000000	6.616505
O	2.205502	2.205502	4.411003
Cd	2.205502	6.616505	2.205502
K	0.000000	4.411003	0.000000
O	0.000000	6.616505	2.205502
O	2.205502	4.411003	2.205502
O	2.205502	6.616505	0.000000
Cd	2.205502	6.616505	6.616505
K	0.000000	4.411003	4.411003
O	0.000000	6.616505	6.616505
O	2.205502	4.411003	6.616505
O	2.205502	6.616505	4.411003
Cd	6.616505	2.205502	2.205502
K	4.411003	0.000000	0.000000
O	4.411003	2.205502	2.205502
O	6.616505	0.000000	2.205502
O	6.616505	2.205502	0.000000
Cd	6.616505	2.205502	6.616505
K	4.411003	0.000000	4.411003
O	4.411003	2.205502	6.616505
O	6.616505	0.000000	6.616505
O	6.616505	2.205502	4.411003
Cd	6.616505	6.616505	2.205502
K	4.411003	4.411003	0.000000
O	4.411003	6.616505	2.205502
O	6.616505	4.411003	2.205502
O	6.616505	6.616505	0.000000
Cd	6.616505	6.616505	6.616505
K	4.411003	4.411003	4.411003
O	4.411003	6.616505	6.616505
O	6.616505	4.411003	6.616505
O	6.616505	6.616505	4.411003
