112

Ir	0.000000	0.000000	0.000000
Ir	2.298622	-2.299279	-2.299279
O	3.435837	-1.161071	-1.161071
O	-1.161407	1.161071	-3.437488
O	1.161407	-1.161071	-3.437488
O	1.137215	1.138208	-1.138208
O	5.758651	1.161071	-1.161071
O	1.137215	3.460350	-3.460350
O	3.460029	3.460350	-1.138208
O	3.460029	1.138208	-3.460350
Yb	-1.149311	-1.149640	-3.448919
Yb	3.447933	1.149640	-1.149640
Yb	5.746555	-1.149640	-1.149640
Yb	1.149311	1.149640	-3.448919
Ir	4.597244	4.598558	0.000000
Ir	6.895867	2.299279	-2.299279
O	8.033082	3.437488	-1.161071
O	3.435837	5.759629	-3.437488
O	5.758651	3.437488	-3.437488
O	5.734460	5.736767	-1.138208
O	10.355896	5.759629	-1.161071
O	5.734460	8.058908	-3.460350
O	8.057273	8.058908	-1.138208
O	8.057273	5.736767	-3.460350
Yb	3.447933	3.448919	-3.448919
Yb	8.045178	5.748198	-1.149640
Yb	10.343800	3.448919	-1.149640
Yb	5.746555	5.748198	-3.448919
Ir	-4.597244	0.000000	-4.598558
Ir	-2.298622	-2.299279	-6.897838
O	-1.161407	-1.161071	-5.759629
O	-5.758651	1.161071	-8.036046
O	-3.435837	-1.161071	-8.036046
O	-3.460029	1.138208	-5.736767
O	1.161407	1.161071	-5.759629
O	-3.460029	3.460350	-8.058908
O	-1.137215	3.460350	-5.736767
O	-1.137215	1.138208	-8.058908
Yb	-5.746555	-1.149640	-8.047477
Yb	-1.149311	1.149640	-5.748198
Yb	1.149311	-1.149640	-5.748198
Yb	-3.447933	1.149640	-8.047477
Ir	0.000000	4.598558	-4.598558
Ir	2.298622	2.299279	-6.897838
O	3.435837	3.437488	-5.759629
O	-1.161407	5.759629	-8.036046
O	1.161407	3.437488	-8.036046
O	1.137215	5.736767	-5.736767
O	5.758651	5.759629	-5.759629
O	1.137215	8.058908	-8.058908
O	3.460029	8.058908	-5.736767
O	3.460029	5.736767	-8.058908
Yb	-1.149311	3.448919	-8.047477
Yb	3.447933	5.748198	-5.748198
Yb	5.746555	3.448919	-5.748198
Yb	1.149311	5.748198	-8.047477
Ir	4.597244	-4.598558	0.000000
Ir	6.895867	-6.897838	-2.299279
O	8.033082	-5.759629	-1.161071
O	3.435837	-3.437488	-3.437488
O	5.758651	-5.759629	-3.437488
O	5.734460	-3.460350	-1.138208
O	10.355896	-3.437488	-1.161071
O	5.734460	-1.138208	-3.460350
O	8.057273	-1.138208	-1.138208
O	8.057273	-3.460350	-3.460350
Yb	3.447933	-5.748198	-3.448919
Yb	8.045178	-3.448919	-1.149640
Yb	10.343800	-5.748198	-1.149640
Yb	5.746555	-3.448919	-3.448919
Ir	9.194489	0.000000	0.000000
Ir	11.493111	-2.299279	-2.299279
O	12.630326	-1.161071	-1.161071
O	8.033082	1.161071	-3.437488
O	10.355896	-1.161071	-3.437488
O	10.331704	1.138208	-1.138208
O	14.953140	1.161071	-1.161071
O	10.331704	3.460350	-3.460350
O	12.654518	3.460350	-1.138208
O	12.654518	1.138208	-3.460350
Yb	8.045178	-1.149640	-3.448919
Yb	12.642422	1.149640	-1.149640
Yb	14.941044	-1.149640	-1.149640
Yb	10.343800	1.149640	-3.448919
Ir	0.000000	-4.598558	-4.598558
Ir	2.298622	-6.897838	-6.897838
O	3.435837	-5.759629	-5.759629
O	-1.161407	-3.437488	-8.036046
O	1.161407	-5.759629	-8.036046
O	1.137215	-3.460350	-5.736767
O	5.758651	-3.437488	-5.759629
O	1.137215	-1.138208	-8.058908
O	3.460029	-1.138208	-5.736767
O	3.460029	-3.460350	-8.058908
Yb	-1.149311	-5.748198	-8.047477
Yb	3.447933	-3.448919	-5.748198
Yb	5.746555	-5.748198	-5.748198
Yb	1.149311	-3.448919	-8.047477
Ir	4.597244	0.000000	-4.598558
Ir	6.895867	-2.299279	-6.897838
O	8.033082	-1.161071	-5.759629
O	3.435837	1.161071	-8.036046
O	5.758651	-1.161071	-8.036046
O	5.734460	1.138208	-5.736767
O	10.355896	1.161071	-5.759629
O	5.734460	3.460350	-8.058908
O	8.057273	3.460350	-5.736767
O	8.057273	1.138208	-8.058908
Yb	3.447933	-1.149640	-8.047477
Yb	8.045178	1.149640	-5.748198
Yb	10.343800	-1.149640	-5.748198
Yb	5.746555	1.149640	-8.047477
