112

Ir	0.000000	0.000000	0.000000
Ir	2.279847	-2.280662	-2.280662
O	1.131252	1.132438	-1.132438
O	-1.148605	1.148224	-3.413099
O	3.411100	-1.148224	-1.148224
O	1.148605	-1.148224	-3.413099
O	1.131252	3.428886	-3.428886
O	3.428452	3.428886	-1.132438
O	3.428452	1.132438	-3.428886
O	5.708300	1.148224	-1.148224
Yb	-1.139924	-1.140331	-3.420993
Yb	3.419771	1.140331	-1.140331
Yb	1.139924	1.140331	-3.420993
Yb	5.699628	-1.140331	-1.140331
Ir	4.559699	4.561322	0.000000
Ir	6.839546	2.280660	-2.280662
O	5.690951	5.693760	-1.132438
O	3.411094	5.709546	-3.413099
O	7.970799	3.413098	-1.148224
O	5.708304	3.413098	-3.413099
O	5.690951	7.990207	-3.428886
O	7.988152	7.990207	-1.132438
O	7.988152	5.693760	-3.428886
O	10.267999	5.709546	-1.148224
Yb	3.419775	3.420991	-3.420993
Yb	7.979470	5.701653	-1.140331
Yb	5.699623	5.701653	-3.420993
Yb	10.259327	3.420991	-1.140331
Ir	-4.559699	0.000000	-4.561322
Ir	-2.279852	-2.280662	-6.841984
O	-3.428447	1.132438	-5.693760
O	-5.708304	1.148224	-7.974421
O	-1.148600	-1.148224	-5.709546
O	-3.411094	-1.148224	-7.974421
O	-3.428447	3.428886	-7.990207
O	-1.131247	3.428886	-5.693760
O	-1.131247	1.132438	-7.990207
O	1.148601	1.148224	-5.709546
Yb	-5.699623	-1.140331	-7.982314
Yb	-1.139928	1.140331	-5.701653
Yb	-3.419775	1.140331	-7.982314
Yb	1.139929	-1.140331	-5.701653
Ir	0.000000	4.561322	-4.561322
Ir	2.279847	2.280660	-6.841984
O	1.131252	5.693760	-5.693760
O	-1.148605	5.709546	-7.974421
O	3.411100	3.413098	-5.709546
O	1.148605	3.413098	-7.974421
O	1.131252	7.990207	-7.990207
O	3.428452	7.990207	-5.693760
O	3.428452	5.693760	-7.990207
O	5.708300	5.709546	-5.709546
Yb	-1.139924	3.420991	-7.982314
Yb	3.419771	5.701653	-5.701653
Yb	1.139924	5.701653	-7.982314
Yb	5.699628	3.420991	-5.701653
Ir	4.559699	-4.561322	0.000000
Ir	6.839546	-6.841984	-2.280662
O	5.690951	-3.428884	-1.132438
O	3.411094	-3.413098	-3.413099
O	7.970799	-5.709546	-1.148224
O	5.708304	-5.709546	-3.413099
O	5.690951	-1.132436	-3.428886
O	7.988152	-1.132436	-1.132438
O	7.988152	-3.428884	-3.428886
O	10.267999	-3.413098	-1.148224
Yb	3.419775	-5.701653	-3.420993
Yb	7.979470	-3.420991	-1.140331
Yb	5.699623	-3.420991	-3.420993
Yb	10.259327	-5.701653	-1.140331
Ir	9.119398	0.000000	0.000000
Ir	11.399246	-2.280662	-2.280662
O	10.250650	1.132438	-1.132438
O	7.970793	1.148224	-3.413099
O	12.530498	-1.148224	-1.148224
O	10.268003	-1.148224	-3.413099
O	10.250650	3.428886	-3.428886
O	12.547851	3.428886	-1.132438
O	12.547851	1.132438	-3.428886
O	14.827698	1.148224	-1.148224
Yb	7.979475	-1.140331	-3.420993
Yb	12.539169	1.140331	-1.140331
Yb	10.259322	1.140331	-3.420993
Yb	14.819027	-1.140331	-1.140331
Ir	0.000000	-4.561322	-4.561322
Ir	2.279847	-6.841984	-6.841984
O	1.131252	-3.428884	-5.693760
O	-1.148605	-3.413098	-7.974421
O	3.411100	-5.709546	-5.709546
O	1.148605	-5.709546	-7.974421
O	1.131252	-1.132436	-7.990207
O	3.428452	-1.132436	-5.693760
O	3.428452	-3.428884	-7.990207
O	5.708300	-3.413098	-5.709546
Yb	-1.139924	-5.701653	-7.982314
Yb	3.419771	-3.420991	-5.701653
Yb	1.139924	-3.420991	-7.982314
Yb	5.699628	-5.701653	-5.701653
Ir	4.559699	0.000000	-4.561322
Ir	6.839546	-2.280662	-6.841984
O	5.690951	1.132438	-5.693760
O	3.411094	1.148224	-7.974421
O	7.970799	-1.148224	-5.709546
O	5.708304	-1.148224	-7.974421
O	5.690951	3.428886	-7.990207
O	7.988152	3.428886	-5.693760
O	7.988152	1.132438	-7.990207
O	10.267999	1.148224	-5.709546
Yb	3.419775	-1.140331	-7.982314
Yb	7.979470	1.140331	-5.701653
Yb	5.699623	1.140331	-7.982314
Yb	10.259327	-1.140331	-5.701653
