40

Br	0.000000	0.000000	0.000000
O	0.000000	2.215432	2.215432
O	2.215432	0.000000	2.215432
O	2.215432	2.215432	0.000000
Tl	2.215432	2.215432	2.215432
Br	0.000000	0.000000	4.430863
O	0.000000	2.215432	6.646295
O	2.215432	0.000000	6.646295
O	2.215432	2.215432	4.430863
Tl	2.215432	2.215432	6.646295
Br	0.000000	4.430863	0.000000
O	0.000000	6.646295	2.215432
O	2.215432	4.430863	2.215432
O	2.215432	6.646295	0.000000
Tl	2.215432	6.646295	2.215432
Br	0.000000	4.430863	4.430863
O	0.000000	6.646295	6.646295
O	2.215432	4.430863	6.646295
O	2.215432	6.646295	4.430863
Tl	2.215432	6.646295	6.646295
Br	4.430863	0.000000	0.000000
O	4.430863	2.215432	2.215432
O	6.646295	0.000000	2.215432
O	6.646295	2.215432	0.000000
Tl	6.646295	2.215432	2.215432
Br	4.430863	0.000000	4.430863
O	4.430863	2.215432	6.646295
O	6.646295	0.000000	6.646295
O	6.646295	2.215432	4.430863
Tl	6.646295	2.215432	6.646295
Br	4.430863	4.430863	0.000000
O	4.430863	6.646295	2.215432
O	6.646295	4.430863	2.215432
O	6.646295	6.646295	0.000000
Tl	6.646295	6.646295	2.215432
Br	4.430863	4.430863	4.430863
O	4.430863	6.646295	6.646295
O	6.646295	4.430863	6.646295
O	6.646295	6.646295	4.430863
Tl	6.646295	6.646295	6.646295
