112

Cd	-4.665911	-2.332956	-2.332956
Cd	-2.332956	-4.665911	-2.332956
Cd	-2.332956	-2.332956	-4.665911
Cd	-4.665911	-4.665911	-4.665911
Sn	-1.166478	-1.166478	-1.166478
Sn	-8.165344	-8.165344	-8.165344
O	-2.325298	-4.673569	-4.673569
O	-4.673569	-2.325298	-4.673569
O	-4.673569	-4.673569	-2.325298
O	-2.325298	-2.325298	-2.325298
O	-7.006524	-4.658253	-4.658253
O	-4.658253	-7.006524	-4.658253
O	-4.658253	-4.658253	-7.006524
O	-7.006524	-7.006524	-7.006524
Cd	-4.665911	-6.998867	-6.998867
Cd	-2.332956	-9.331822	-6.998867
Cd	-2.332956	-6.998867	-9.331822
Cd	-4.665911	-9.331822	-9.331822
Sn	-1.166478	-5.832389	-5.832389
Sn	-8.165344	-12.831256	-12.831256
O	-2.325298	-9.339480	-9.339480
O	-4.673569	-6.991209	-9.339480
O	-4.673569	-9.339480	-6.991209
O	-2.325298	-6.991209	-6.991209
O	-7.006524	-9.324164	-9.324164
O	-4.658253	-11.672436	-9.324164
O	-4.658253	-9.324164	-11.672436
O	-7.006524	-11.672436	-11.672436
Cd	-9.331822	-2.332956	-6.998867
Cd	-6.998867	-4.665911	-6.998867
Cd	-6.998867	-2.332956	-9.331822
Cd	-9.331822	-4.665911	-9.331822
Sn	-5.832389	-1.166478	-5.832389
Sn	-12.831256	-8.165344	-12.831256
O	-6.991209	-4.673569	-9.339480
O	-9.339480	-2.325298	-9.339480
O	-9.339480	-4.673569	-6.991209
O	-6.991209	-2.325298	-6.991209
O	-11.672436	-4.658253	-9.324164
O	-9.324164	-7.006524	-9.324164
O	-9.324164	-4.658253	-11.672436
O	-11.672436	-7.006524	-11.672436
Cd	-9.331822	-6.998867	-11.664778
Cd	-6.998867	-9.331822	-11.664778
Cd	-6.998867	-6.998867	-13.997733
Cd	-9.331822	-9.331822	-13.997733
Sn	-5.832389	-5.832389	-10.498300
Sn	-12.831256	-12.831256	-17.497167
O	-6.991209	-9.339480	-14.005391
O	-9.339480	-6.991209	-14.005391
O	-9.339480	-9.339480	-11.657120
O	-6.991209	-6.991209	-11.657120
O	-11.672436	-9.324164	-13.990075
O	-9.324164	-11.672436	-13.990075
O	-9.324164	-9.324164	-16.338347
O	-11.672436	-11.672436	-16.338347
Cd	-9.331822	-6.998867	-2.332956
Cd	-6.998867	-9.331822	-2.332956
Cd	-6.998867	-6.998867	-4.665911
Cd	-9.331822	-9.331822	-4.665911
Sn	-5.832389	-5.832389	-1.166478
Sn	-12.831256	-12.831256	-8.165344
O	-6.991209	-9.339480	-4.673569
O	-9.339480	-6.991209	-4.673569
O	-9.339480	-9.339480	-2.325298
O	-6.991209	-6.991209	-2.325298
O	-11.672436	-9.324164	-4.658253
O	-9.324164	-11.672436	-4.658253
O	-9.324164	-9.324164	-7.006524
O	-11.672436	-11.672436	-7.006524
Cd	-9.331822	-11.664778	-6.998867
Cd	-6.998867	-13.997733	-6.998867
Cd	-6.998867	-11.664778	-9.331822
Cd	-9.331822	-13.997733	-9.331822
Sn	-5.832389	-10.498300	-5.832389
Sn	-12.831256	-17.497167	-12.831256
O	-6.991209	-14.005391	-9.339480
O	-9.339480	-11.657120	-9.339480
O	-9.339480	-14.005391	-6.991209
O	-6.991209	-11.657120	-6.991209
O	-11.672436	-13.990075	-9.324164
O	-9.324164	-16.338347	-9.324164
O	-9.324164	-13.990075	-11.672436
O	-11.672436	-16.338347	-11.672436
Cd	-13.997733	-6.998867	-6.998867
Cd	-11.664778	-9.331822	-6.998867
Cd	-11.664778	-6.998867	-9.331822
Cd	-13.997733	-9.331822	-9.331822
Sn	-10.498300	-5.832389	-5.832389
Sn	-17.497167	-12.831256	-12.831256
O	-11.657120	-9.339480	-9.339480
O	-14.005391	-6.991209	-9.339480
O	-14.005391	-9.339480	-6.991209
O	-11.657120	-6.991209	-6.991209
O	-16.338347	-9.324164	-9.324164
O	-13.990075	-11.672436	-9.324164
O	-13.990075	-9.324164	-11.672436
O	-16.338347	-11.672436	-11.672436
Cd	-13.997733	-11.664778	-11.664778
Cd	-11.664778	-13.997733	-11.664778
Cd	-11.664778	-11.664778	-13.997733
Cd	-13.997733	-13.997733	-13.997733
Sn	-10.498300	-10.498300	-10.498300
Sn	-17.497167	-17.497167	-17.497167
O	-11.657120	-14.005391	-14.005391
O	-14.005391	-11.657120	-14.005391
O	-14.005391	-14.005391	-11.657120
O	-11.657120	-11.657120	-11.657120
O	-16.338347	-13.990075	-13.990075
O	-13.990075	-16.338347	-13.990075
O	-13.990075	-13.990075	-16.338347
O	-16.338347	-16.338347	-16.338347
