40

Al	1.847055	1.847055	1.847055
Er	0.000000	0.000000	0.000000
O	1.847055	1.847055	0.000000
O	1.847055	0.000000	1.847055
O	0.000000	1.847055	1.847055
Al	1.847055	1.847055	5.541166
Er	0.000000	0.000000	3.694111
O	1.847055	1.847055	3.694111
O	1.847055	0.000000	5.541166
O	0.000000	1.847055	5.541166
Al	1.847055	5.541166	1.847055
Er	0.000000	3.694111	0.000000
O	1.847055	5.541166	0.000000
O	1.847055	3.694111	1.847055
O	0.000000	5.541166	1.847055
Al	1.847055	5.541166	5.541166
Er	0.000000	3.694111	3.694111
O	1.847055	5.541166	3.694111
O	1.847055	3.694111	5.541166
O	0.000000	5.541166	5.541166
Al	5.541166	1.847055	1.847055
Er	3.694111	0.000000	0.000000
O	5.541166	1.847055	0.000000
O	5.541166	0.000000	1.847055
O	3.694111	1.847055	1.847055
Al	5.541166	1.847055	5.541166
Er	3.694111	0.000000	3.694111
O	5.541166	1.847055	3.694111
O	5.541166	0.000000	5.541166
O	3.694111	1.847055	5.541166
Al	5.541166	5.541166	1.847055
Er	3.694111	3.694111	0.000000
O	5.541166	5.541166	0.000000
O	5.541166	3.694111	1.847055
O	3.694111	5.541166	1.847055
Al	5.541166	5.541166	5.541166
Er	3.694111	3.694111	3.694111
O	5.541166	5.541166	3.694111
O	5.541166	3.694111	5.541166
O	3.694111	5.541166	5.541166
