112

B	0.000000	0.000000	0.000000
B	1.962696	-1.962939	-1.962939
Fe	-0.981348	-0.981470	-2.944409
Fe	2.944044	0.981470	-0.981470
Fe	4.906741	-0.981470	-0.981470
Fe	0.981348	0.981470	-2.944409
O	2.839449	-1.086053	-1.086053
O	-1.085944	1.086053	-2.839825
O	1.085944	-1.086053	-2.839825
O	0.876753	0.876886	-0.876886
O	5.011336	1.086053	-1.086053
O	0.876753	3.048992	-3.048992
O	3.048640	3.048992	-0.876886
O	3.048640	0.876886	-3.048992
B	3.925392	3.925878	0.000000
B	5.888089	1.962939	-1.962939
Fe	2.944044	2.944409	-2.944409
Fe	6.869437	4.907348	-0.981470
Fe	8.832133	2.944409	-0.981470
Fe	4.906741	4.907348	-2.944409
O	6.764841	2.839825	-1.086053
O	2.839449	5.011931	-2.839825
O	5.011336	2.839825	-2.839825
O	4.802145	4.802764	-0.876886
O	8.936728	5.011931	-1.086053
O	4.802145	6.974870	-3.048992
O	6.974032	6.974870	-0.876886
O	6.974032	4.802764	-3.048992
B	-3.925392	0.000000	-3.925878
B	-1.962696	-1.962939	-5.888817
Fe	-4.906741	-0.981470	-6.870287
Fe	-0.981348	0.981470	-4.907348
Fe	0.981348	-0.981470	-4.907348
Fe	-2.944044	0.981470	-6.870287
O	-1.085944	-1.086053	-5.011931
O	-5.011336	1.086053	-6.765704
O	-2.839449	-1.086053	-6.765704
O	-3.048640	0.876886	-4.802764
O	1.085944	1.086053	-5.011931
O	-3.048640	3.048992	-6.974870
O	-0.876753	3.048992	-4.802764
O	-0.876753	0.876886	-6.974870
B	0.000000	3.925878	-3.925878
B	1.962696	1.962939	-5.888817
Fe	-0.981348	2.944409	-6.870287
Fe	2.944044	4.907348	-4.907348
Fe	4.906741	2.944409	-4.907348
Fe	0.981348	4.907348	-6.870287
O	2.839449	2.839825	-5.011931
O	-1.085944	5.011931	-6.765704
O	1.085944	2.839825	-6.765704
O	0.876753	4.802764	-4.802764
O	5.011336	5.011931	-5.011931
O	0.876753	6.974870	-6.974870
O	3.048640	6.974870	-4.802764
O	3.048640	4.802764	-6.974870
B	3.925392	-3.925878	0.000000
B	5.888089	-5.888817	-1.962939
Fe	2.944044	-4.907348	-2.944409
Fe	6.869437	-2.944409	-0.981470
Fe	8.832133	-4.907348	-0.981470
Fe	4.906741	-2.944409	-2.944409
O	6.764841	-5.011931	-1.086053
O	2.839449	-2.839825	-2.839825
O	5.011336	-5.011931	-2.839825
O	4.802145	-3.048992	-0.876886
O	8.936728	-2.839825	-1.086053
O	4.802145	-0.876886	-3.048992
O	6.974032	-0.876886	-0.876886
O	6.974032	-3.048992	-3.048992
B	7.850785	0.000000	0.000000
B	9.813481	-1.962939	-1.962939
Fe	6.869437	-0.981470	-2.944409
Fe	10.794829	0.981470	-0.981470
Fe	12.757525	-0.981470	-0.981470
Fe	8.832133	0.981470	-2.944409
O	10.690234	-1.086053	-1.086053
O	6.764841	1.086053	-2.839825
O	8.936728	-1.086053	-2.839825
O	8.727538	0.876886	-0.876886
O	12.862121	1.086053	-1.086053
O	8.727538	3.048992	-3.048992
O	10.899425	3.048992	-0.876886
O	10.899425	0.876886	-3.048992
B	0.000000	-3.925878	-3.925878
B	1.962696	-5.888817	-5.888817
Fe	-0.981348	-4.907348	-6.870287
Fe	2.944044	-2.944409	-4.907348
Fe	4.906741	-4.907348	-4.907348
Fe	0.981348	-2.944409	-6.870287
O	2.839449	-5.011931	-5.011931
O	-1.085944	-2.839825	-6.765704
O	1.085944	-5.011931	-6.765704
O	0.876753	-3.048992	-4.802764
O	5.011336	-2.839825	-5.011931
O	0.876753	-0.876886	-6.974870
O	3.048640	-0.876886	-4.802764
O	3.048640	-3.048992	-6.974870
B	3.925392	0.000000	-3.925878
B	5.888089	-1.962939	-5.888817
Fe	2.944044	-0.981470	-6.870287
Fe	6.869437	0.981470	-4.907348
Fe	8.832133	-0.981470	-4.907348
Fe	4.906741	0.981470	-6.870287
O	6.764841	-1.086053	-5.011931
O	2.839449	1.086053	-6.765704
O	5.011336	-1.086053	-6.765704
O	4.802145	0.876886	-4.802764
O	8.936728	1.086053	-5.011931
O	4.802145	3.048992	-6.974870
O	6.974032	3.048992	-4.802764
O	6.974032	0.876886	-6.974870
