40

Sr	-2.818826	0.000000	-1.996081
Tc	0.000000	0.000000	0.000000
O	-1.409413	1.409413	0.000000
O	-1.409413	-1.409413	0.000000
O	0.000000	0.000000	-1.996081
Sr	-2.818826	0.000000	-5.988243
Tc	0.000000	0.000000	-3.992162
O	-1.409413	1.409413	-3.992162
O	-1.409413	-1.409413	-3.992162
O	0.000000	0.000000	-5.988243
Sr	-5.637651	2.818826	-1.996081
Tc	-2.818826	2.818826	0.000000
O	-4.228238	4.228238	0.000000
O	-4.228238	1.409413	0.000000
O	-2.818826	2.818826	-1.996081
Sr	-5.637651	2.818826	-5.988243
Tc	-2.818826	2.818826	-3.992162
O	-4.228238	4.228238	-3.992162
O	-4.228238	1.409413	-3.992162
O	-2.818826	2.818826	-5.988243
Sr	-5.637651	-2.818826	-1.996081
Tc	-2.818826	-2.818826	0.000000
O	-4.228238	-1.409413	0.000000
O	-4.228238	-4.228238	0.000000
O	-2.818826	-2.818826	-1.996081
Sr	-5.637651	-2.818826	-5.988243
Tc	-2.818826	-2.818826	-3.992162
O	-4.228238	-1.409413	-3.992162
O	-4.228238	-4.228238	-3.992162
O	-2.818826	-2.818826	-5.988243
Sr	-8.456477	0.000000	-1.996081
Tc	-5.637651	0.000000	0.000000
O	-7.047064	1.409413	0.000000
O	-7.047064	-1.409413	0.000000
O	-5.637651	0.000000	-1.996081
Sr	-8.456477	0.000000	-5.988243
Tc	-5.637651	0.000000	-3.992162
O	-7.047064	1.409413	-3.992162
O	-7.047064	-1.409413	-3.992162
O	-5.637651	0.000000	-5.988243
