176

O	5.343958	3.778749	9.256007
O	3.206375	2.267249	5.553604
O	4.125029	5.502575	11.367253
O	1.987446	3.991075	7.664851
O	6.562887	2.054924	11.367253
O	7.781816	5.502575	9.256007
O	2.906101	2.054924	9.256007
O	4.125029	5.502575	7.144761
O	6.562887	2.054924	7.144761
O	5.644232	3.991075	5.553604
O	0.768517	0.543424	5.553604
O	4.425304	0.543424	3.442358
O	4.425304	0.543424	7.664851
O	1.987446	3.991075	3.442358
Sn	1.068792	3.022999	1.851201
Sn	3.206375	0.000000	1.851201
Sn	0.000000	0.000000	3.702403
Sn	0.000000	0.000000	0.000000
Ho	3.206375	0.000000	5.553604
Ho	1.068792	3.022999	5.553604
Ho	4.275167	3.022999	3.702403
Ho	4.275167	3.022999	7.404806
O	5.343958	3.778749	16.660813
O	3.206375	2.267249	12.958410
O	4.125029	5.502575	18.772059
O	1.987446	3.991075	15.069656
O	6.562887	2.054924	18.772059
O	7.781816	5.502575	16.660813
O	2.906101	2.054924	16.660813
O	4.125029	5.502575	14.549566
O	6.562887	2.054924	14.549566
O	5.644232	3.991075	12.958410
O	0.768517	0.543424	12.958410
O	4.425304	0.543424	10.847163
O	4.425304	0.543424	15.069656
O	1.987446	3.991075	10.847163
Sn	1.068792	3.022999	9.256007
Sn	3.206375	0.000000	9.256007
Sn	0.000000	0.000000	11.107208
Sn	0.000000	0.000000	7.404806
Ho	3.206375	0.000000	12.958410
Ho	1.068792	3.022999	12.958410
Ho	4.275167	3.022999	11.107208
Ho	4.275167	3.022999	14.809611
O	7.481541	9.824747	12.958410
O	5.343958	8.313248	9.256007
O	6.262613	11.548573	15.069656
O	4.125029	10.037073	11.367253
O	8.700470	8.100922	15.069656
O	9.919399	11.548573	12.958410
O	5.043684	8.100922	12.958410
O	6.262613	11.548573	10.847163
O	8.700470	8.100922	10.847163
O	7.781816	10.037073	9.256007
O	2.906101	6.589422	9.256007
O	6.562887	6.589422	7.144761
O	6.562887	6.589422	11.367253
O	4.125029	10.037073	7.144761
Sn	3.206375	9.068998	5.553604
Sn	5.343958	6.045998	5.553604
Sn	2.137583	6.045998	7.404806
Sn	2.137583	6.045998	3.702403
Ho	5.343958	6.045998	9.256007
Ho	3.206375	9.068998	9.256007
Ho	6.412750	9.068998	7.404806
Ho	6.412750	9.068998	11.107208
O	7.481541	9.824747	20.363215
O	5.343958	8.313248	16.660813
O	6.262613	11.548573	22.474462
O	4.125029	10.037073	18.772059
O	8.700470	8.100922	22.474462
O	9.919399	11.548573	20.363215
O	5.043684	8.100922	20.363215
O	6.262613	11.548573	18.251969
O	8.700470	8.100922	18.251969
O	7.781816	10.037073	16.660813
O	2.906101	6.589422	16.660813
O	6.562887	6.589422	14.549566
O	6.562887	6.589422	18.772059
O	4.125029	10.037073	14.549566
Sn	3.206375	9.068998	12.958410
Sn	5.343958	6.045998	12.958410
Sn	2.137583	6.045998	14.809611
Sn	2.137583	6.045998	11.107208
Ho	5.343958	6.045998	16.660813
Ho	3.206375	9.068998	16.660813
Ho	6.412750	9.068998	14.809611
Ho	6.412750	9.068998	18.512014
O	11.756708	3.778749	12.958410
O	9.619125	2.267249	9.256007
O	10.537779	5.502575	15.069656
O	8.400196	3.991075	11.367253
O	12.975637	2.054924	15.069656
O	14.194565	5.502575	12.958410
O	9.318850	2.054924	12.958410
O	10.537779	5.502575	10.847163
O	12.975637	2.054924	10.847163
O	12.056982	3.991075	9.256007
O	7.181267	0.543424	9.256007
O	10.838053	0.543424	7.144761
O	10.838053	0.543424	11.367253
O	8.400196	3.991075	7.144761
Sn	7.481541	3.022999	5.553604
Sn	9.619125	0.000000	5.553604
Sn	6.412750	0.000000	7.404806
Sn	6.412750	0.000000	3.702403
Ho	9.619125	0.000000	9.256007
Ho	7.481541	3.022999	9.256007
Ho	10.687916	3.022999	7.404806
Ho	10.687916	3.022999	11.107208
O	11.756708	3.778749	20.363215
O	9.619125	2.267249	16.660813
O	10.537779	5.502575	22.474462
O	8.400196	3.991075	18.772059
O	12.975637	2.054924	22.474462
O	14.194565	5.502575	20.363215
O	9.318850	2.054924	20.363215
O	10.537779	5.502575	18.251969
O	12.975637	2.054924	18.251969
O	12.056982	3.991075	16.660813
O	7.181267	0.543424	16.660813
O	10.838053	0.543424	14.549566
O	10.838053	0.543424	18.772059
O	8.400196	3.991075	14.549566
Sn	7.481541	3.022999	12.958410
Sn	9.619125	0.000000	12.958410
Sn	6.412750	0.000000	14.809611
Sn	6.412750	0.000000	11.107208
Ho	9.619125	0.000000	16.660813
Ho	7.481541	3.022999	16.660813
Ho	10.687916	3.022999	14.809611
Ho	10.687916	3.022999	18.512014
O	13.894291	9.824747	16.660813
O	11.756708	8.313248	12.958410
O	12.675362	11.548573	18.772059
O	10.537779	10.037073	15.069656
O	15.113220	8.100922	18.772059
O	16.332149	11.548573	16.660813
O	11.456434	8.100922	16.660813
O	12.675362	11.548573	14.549566
O	15.113220	8.100922	14.549566
O	14.194565	10.037073	12.958410
O	9.318850	6.589422	12.958410
O	12.975637	6.589422	10.847163
O	12.975637	6.589422	15.069656
O	10.537779	10.037073	10.847163
Sn	9.619125	9.068998	9.256007
Sn	11.756708	6.045998	9.256007
Sn	8.550333	6.045998	11.107208
Sn	8.550333	6.045998	7.404806
Ho	11.756708	6.045998	12.958410
Ho	9.619125	9.068998	12.958410
Ho	12.825500	9.068998	11.107208
Ho	12.825500	9.068998	14.809611
O	13.894291	9.824747	24.065618
O	11.756708	8.313248	20.363215
O	12.675362	11.548573	26.176865
O	10.537779	10.037073	22.474462
O	15.113220	8.100922	26.176865
O	16.332149	11.548573	24.065618
O	11.456434	8.100922	24.065618
O	12.675362	11.548573	21.954372
O	15.113220	8.100922	21.954372
O	14.194565	10.037073	20.363215
O	9.318850	6.589422	20.363215
O	12.975637	6.589422	18.251969
O	12.975637	6.589422	22.474462
O	10.537779	10.037073	18.251969
Sn	9.619125	9.068998	16.660813
Sn	11.756708	6.045998	16.660813
Sn	8.550333	6.045998	18.512014
Sn	8.550333	6.045998	14.809611
Ho	11.756708	6.045998	20.363215
Ho	9.619125	9.068998	20.363215
Ho	12.825500	9.068998	18.512014
Ho	12.825500	9.068998	22.214417
