112

Ag	0.000000	0.000000	0.000000
Ag	2.401046	-2.402181	-2.402181
Dy	-1.200523	-1.201091	-3.603272
Dy	3.601569	1.201091	-1.201091
Dy	6.002614	-1.201091	-1.201091
Dy	1.200523	1.201091	-3.603272
O	3.737244	-1.064881	-1.064881
O	-1.064847	1.064881	-3.739481
O	1.064847	-1.064881	-3.739481
O	1.336199	1.337300	-1.337300
O	5.866938	1.064881	-1.064881
O	1.336199	3.467063	-3.467063
O	3.465893	3.467063	-1.337300
O	3.465893	1.337300	-3.467063
Ag	4.802091	4.804362	0.000000
Ag	7.203137	2.402181	-2.402181
Dy	3.601569	3.603272	-3.603272
Dy	8.403660	6.005453	-1.201091
Dy	10.804706	3.603272	-1.201091
Dy	6.002614	6.005453	-3.603272
O	8.539336	3.739481	-1.064881
O	3.737245	5.869244	-3.739481
O	5.866938	3.739481	-3.739481
O	6.138290	6.141662	-1.337300
O	10.669030	5.869244	-1.064881
O	6.138290	8.271425	-3.467063
O	8.267984	8.271425	-1.337300
O	8.267984	6.141662	-3.467063
Ag	-4.802091	0.000000	-4.804362
Ag	-2.401046	-2.402181	-7.206544
Dy	-6.002614	-1.201091	-8.407634
Dy	-1.200523	1.201091	-6.005453
Dy	1.200523	-1.201091	-6.005453
Dy	-3.601569	1.201091	-8.407634
O	-1.064847	-1.064881	-5.869244
O	-5.866938	1.064881	-8.543844
O	-3.737244	-1.064881	-8.543844
O	-3.465893	1.337300	-6.141662
O	1.064847	1.064881	-5.869244
O	-3.465893	3.467063	-8.271425
O	-1.336199	3.467063	-6.141662
O	-1.336199	1.337300	-8.271425
Ag	0.000000	4.804362	-4.804362
Ag	2.401046	2.402181	-7.206544
Dy	-1.200523	3.603272	-8.407634
Dy	3.601569	6.005453	-6.005453
Dy	6.002614	3.603272	-6.005453
Dy	1.200523	6.005453	-8.407634
O	3.737244	3.739481	-5.869244
O	-1.064847	5.869244	-8.543844
O	1.064847	3.739481	-8.543844
O	1.336199	6.141662	-6.141662
O	5.866938	5.869244	-5.869244
O	1.336199	8.271425	-8.271425
O	3.465893	8.271425	-6.141662
O	3.465893	6.141662	-8.271425
Ag	4.802091	-4.804362	0.000000
Ag	7.203137	-7.206544	-2.402181
Dy	3.601569	-6.005453	-3.603272
Dy	8.403660	-3.603272	-1.201091
Dy	10.804706	-6.005453	-1.201091
Dy	6.002614	-3.603272	-3.603272
O	8.539336	-5.869244	-1.064881
O	3.737245	-3.739481	-3.739481
O	5.866938	-5.869244	-3.739481
O	6.138290	-3.467063	-1.337300
O	10.669030	-3.739481	-1.064881
O	6.138290	-1.337300	-3.467063
O	8.267984	-1.337300	-1.337300
O	8.267984	-3.467063	-3.467063
Ag	9.604183	0.000000	0.000000
Ag	12.005229	-2.402181	-2.402181
Dy	8.403660	-1.201091	-3.603272
Dy	13.205752	1.201091	-1.201091
Dy	15.606797	-1.201091	-1.201091
Dy	10.804706	1.201091	-3.603272
O	13.341427	-1.064881	-1.064881
O	8.539336	1.064881	-3.739481
O	10.669030	-1.064881	-3.739481
O	10.940382	1.337300	-1.337300
O	15.471121	1.064881	-1.064881
O	10.940382	3.467063	-3.467063
O	13.070076	3.467063	-1.337300
O	13.070076	1.337300	-3.467063
Ag	0.000000	-4.804362	-4.804362
Ag	2.401046	-7.206544	-7.206544
Dy	-1.200523	-6.005453	-8.407634
Dy	3.601569	-3.603272	-6.005453
Dy	6.002614	-6.005453	-6.005453
Dy	1.200523	-3.603272	-8.407634
O	3.737244	-5.869244	-5.869244
O	-1.064847	-3.739481	-8.543844
O	1.064847	-5.869244	-8.543844
O	1.336199	-3.467063	-6.141662
O	5.866938	-3.739481	-5.869244
O	1.336199	-1.337300	-8.271425
O	3.465893	-1.337300	-6.141662
O	3.465893	-3.467063	-8.271425
Ag	4.802091	0.000000	-4.804362
Ag	7.203137	-2.402181	-7.206544
Dy	3.601569	-1.201091	-8.407634
Dy	8.403660	1.201091	-6.005453
Dy	10.804706	-1.201091	-6.005453
Dy	6.002614	1.201091	-8.407634
O	8.539336	-1.064881	-5.869244
O	3.737245	1.064881	-8.543844
O	5.866938	-1.064881	-8.543844
O	6.138290	1.337300	-6.141662
O	10.669030	1.064881	-5.869244
O	6.138290	3.467063	-8.271425
O	8.267984	3.467063	-6.141662
O	8.267984	1.337300	-8.271425
