40

Co	1.832210	1.832210	1.832210
Lu_3	0.000000	0.000000	0.000000
O	1.832210	1.832210	0.000000
O	0.000000	1.832210	1.832210
O	1.832210	0.000000	1.832210
Co	1.832210	1.832210	5.496623
Lu_3	0.000000	0.000000	3.664413
O	1.832210	1.832210	3.664413
O	0.000000	1.832210	5.496623
O	1.832210	0.000000	5.496623
Co	1.832210	5.496623	1.832210
Lu_3	0.000000	3.664413	0.000000
O	1.832210	5.496623	0.000000
O	0.000000	5.496623	1.832210
O	1.832210	3.664413	1.832210
Co	1.832210	5.496623	5.496623
Lu_3	0.000000	3.664413	3.664413
O	1.832210	5.496623	3.664413
O	0.000000	5.496623	5.496623
O	1.832210	3.664413	5.496623
Co	5.496623	1.832210	1.832210
Lu_3	3.664413	0.000000	0.000000
O	5.496623	1.832210	0.000000
O	3.664413	1.832210	1.832210
O	5.496623	0.000000	1.832210
Co	5.496623	1.832210	5.496623
Lu_3	3.664413	0.000000	3.664413
O	5.496623	1.832210	3.664413
O	3.664413	1.832210	5.496623
O	5.496623	0.000000	5.496623
Co	5.496623	5.496623	1.832210
Lu_3	3.664413	3.664413	0.000000
O	5.496623	5.496623	0.000000
O	3.664413	5.496623	1.832210
O	5.496623	3.664413	1.832210
Co	5.496623	5.496623	5.496623
Lu_3	3.664413	3.664413	3.664413
O	5.496623	5.496623	3.664413
O	3.664413	5.496623	5.496623
O	5.496623	3.664413	5.496623
