40

O	0.000000	1.887738	1.887738
O	1.887738	0.000000	1.887738
O	1.887738	1.887738	0.000000
P	1.887738	1.887738	1.887738
Sc	0.000000	0.000000	0.000000
O	0.000000	1.887738	5.663214
O	1.887738	0.000000	5.663214
O	1.887738	1.887738	3.775476
P	1.887738	1.887738	5.663214
Sc	0.000000	0.000000	3.775476
O	0.000000	5.663214	1.887738
O	1.887738	3.775476	1.887738
O	1.887738	5.663214	0.000000
P	1.887738	5.663214	1.887738
Sc	0.000000	3.775476	0.000000
O	0.000000	5.663214	5.663214
O	1.887738	3.775476	5.663214
O	1.887738	5.663214	3.775476
P	1.887738	5.663214	5.663214
Sc	0.000000	3.775476	3.775476
O	3.775476	1.887738	1.887738
O	5.663214	0.000000	1.887738
O	5.663214	1.887738	0.000000
P	5.663214	1.887738	1.887738
Sc	3.775476	0.000000	0.000000
O	3.775476	1.887738	5.663214
O	5.663214	0.000000	5.663214
O	5.663214	1.887738	3.775476
P	5.663214	1.887738	5.663214
Sc	3.775476	0.000000	3.775476
O	3.775476	5.663214	1.887738
O	5.663214	3.775476	1.887738
O	5.663214	5.663214	0.000000
P	5.663214	5.663214	1.887738
Sc	3.775476	3.775476	0.000000
O	3.775476	5.663214	5.663214
O	5.663214	3.775476	5.663214
O	5.663214	5.663214	3.775476
P	5.663214	5.663214	5.663214
Sc	3.775476	3.775476	3.775476
