40

Ac	0.000000	0.000000	0.000000
O	2.220257	2.220257	0.000000
O	2.220257	0.000000	2.220257
O	0.000000	2.220257	2.220257
Pu	2.220257	2.220257	2.220257
Ac	0.000000	0.000000	4.440521
O	2.220257	2.220257	4.440521
O	2.220257	0.000000	6.660778
O	0.000000	2.220257	6.660778
Pu	2.220257	2.220257	6.660778
Ac	0.000000	4.440521	0.000000
O	2.220257	6.660778	0.000000
O	2.220257	4.440521	2.220257
O	0.000000	6.660778	2.220257
Pu	2.220257	6.660778	2.220257
Ac	0.000000	4.440521	4.440521
O	2.220257	6.660778	4.440521
O	2.220257	4.440521	6.660778
O	0.000000	6.660778	6.660778
Pu	2.220257	6.660778	6.660778
Ac	4.440521	0.000000	0.000000
O	6.660778	2.220257	0.000000
O	6.660778	0.000000	2.220257
O	4.440521	2.220257	2.220257
Pu	6.660778	2.220257	2.220257
Ac	4.440521	0.000000	4.440521
O	6.660778	2.220257	4.440521
O	6.660778	0.000000	6.660778
O	4.440521	2.220257	6.660778
Pu	6.660778	2.220257	6.660778
Ac	4.440521	4.440521	0.000000
O	6.660778	6.660778	0.000000
O	6.660778	4.440521	2.220257
O	4.440521	6.660778	2.220257
Pu	6.660778	6.660778	2.220257
Ac	4.440521	4.440521	4.440521
O	6.660778	6.660778	4.440521
O	6.660778	4.440521	6.660778
O	4.440521	6.660778	6.660778
Pu	6.660778	6.660778	6.660778
