112

Cr	0.000000	0.000000	0.000000
Cr	2.084762	-2.095390	-2.095390
O	3.313057	-0.855556	-0.855556
O	-0.856456	0.855556	-3.335233
O	0.856456	-0.855556	-3.335233
O	1.228305	1.239843	-1.239843
O	5.025970	0.855556	-0.855556
O	1.228305	2.950946	-2.950946
O	2.941208	2.950946	-1.239843
O	2.941208	1.239843	-2.950946
Si	-1.042376	-1.047695	-3.143084
Si	1.042376	1.047695	-3.143084
Si	5.211889	-1.047695	-1.047695
Si	3.127138	1.047695	-1.047695
Cr	4.169514	4.190785	0.000000
Cr	6.254275	2.095395	-2.095390
O	7.482571	3.335229	-0.855556
O	3.313057	5.046341	-3.335233
O	5.025970	3.335229	-3.335233
O	5.397819	5.430628	-1.239843
O	9.195483	5.046341	-0.855556
O	5.397819	7.141731	-2.950946
O	7.110722	7.141731	-1.239843
O	7.110722	5.430628	-2.950946
Si	3.127138	3.143090	-3.143084
Si	5.211890	5.238480	-3.143084
Si	9.381403	3.143090	-1.047695
Si	7.296651	5.238480	-1.047695
Cr	-4.169514	0.000000	-4.190785
Cr	-2.084752	-2.095390	-6.286175
O	-0.856457	-0.855556	-5.046341
O	-5.025970	0.855556	-7.526018
O	-3.313058	-0.855556	-7.526018
O	-2.941208	1.239843	-5.430628
O	0.856456	0.855556	-5.046341
O	-2.941208	2.950946	-7.141731
O	-1.228306	2.950946	-5.430628
O	-1.228306	1.239843	-7.141731
Si	-5.211890	-1.047695	-7.333870
Si	-3.127138	1.047695	-7.333870
Si	1.042375	-1.047695	-5.238480
Si	-1.042376	1.047695	-5.238480
Cr	0.000000	4.190785	-4.190785
Cr	2.084762	2.095395	-6.286175
O	3.313057	3.335229	-5.046341
O	-0.856456	5.046341	-7.526018
O	0.856456	3.335229	-7.526018
O	1.228305	5.430628	-5.430628
O	5.025970	5.046341	-5.046341
O	1.228305	7.141731	-7.141731
O	2.941208	7.141731	-5.430628
O	2.941208	5.430628	-7.141731
Si	-1.042376	3.143090	-7.333870
Si	1.042376	5.238480	-7.333870
Si	5.211889	3.143090	-5.238480
Si	3.127138	5.238480	-5.238480
Cr	4.169514	-4.190785	0.000000
Cr	6.254275	-6.286175	-2.095390
O	7.482571	-5.046341	-0.855556
O	3.313057	-3.335229	-3.335233
O	5.025970	-5.046341	-3.335233
O	5.397819	-2.950942	-1.239843
O	9.195483	-3.335229	-0.855556
O	5.397819	-1.239839	-2.950946
O	7.110722	-1.239839	-1.239843
O	7.110722	-2.950942	-2.950946
Si	3.127138	-5.238480	-3.143084
Si	5.211890	-3.143090	-3.143084
Si	9.381403	-5.238480	-1.047695
Si	7.296651	-3.143090	-1.047695
Cr	8.339028	0.000000	0.000000
Cr	10.423789	-2.095390	-2.095390
O	11.652085	-0.855556	-0.855556
O	7.482571	0.855556	-3.335233
O	9.195484	-0.855556	-3.335233
O	9.567333	1.239843	-1.239843
O	13.364997	0.855556	-0.855556
O	9.567333	2.950946	-2.950946
O	11.280236	2.950946	-1.239843
O	11.280236	1.239843	-2.950946
Si	7.296652	-1.047695	-3.143084
Si	9.381403	1.047695	-3.143084
Si	13.550917	-1.047695	-1.047695
Si	11.466165	1.047695	-1.047695
Cr	0.000000	-4.190785	-4.190785
Cr	2.084762	-6.286175	-6.286175
O	3.313057	-5.046341	-5.046341
O	-0.856456	-3.335229	-7.526018
O	0.856456	-5.046341	-7.526018
O	1.228305	-2.950942	-5.430628
O	5.025970	-3.335229	-5.046341
O	1.228305	-1.239839	-7.141731
O	2.941208	-1.239839	-5.430628
O	2.941208	-2.950942	-7.141731
Si	-1.042376	-5.238480	-7.333870
Si	1.042376	-3.143090	-7.333870
Si	5.211889	-5.238480	-5.238480
Si	3.127138	-3.143090	-5.238480
Cr	4.169514	0.000000	-4.190785
Cr	6.254275	-2.095390	-6.286175
O	7.482571	-0.855556	-5.046341
O	3.313057	0.855556	-7.526018
O	5.025970	-0.855556	-7.526018
O	5.397819	1.239843	-5.430628
O	9.195483	0.855556	-5.046341
O	5.397819	2.950946	-7.141731
O	7.110722	2.950946	-5.430628
O	7.110722	1.239843	-7.141731
Si	3.127138	-1.047695	-7.333870
Si	5.211890	1.047695	-7.333870
Si	9.381403	-1.047695	-5.238480
Si	7.296651	1.047695	-5.238480
