40

Eu	0.000000	0.000000	0.000000
Ni	1.841480	1.841550	1.841550
O	1.841480	1.841550	0.000000
O	0.000000	1.841550	1.841550
O	1.841480	0.000000	1.841550
Eu	0.000000	0.000000	3.683098
Ni	1.841480	1.841550	5.524648
O	1.841480	1.841550	3.683098
O	0.000000	1.841550	5.524648
O	1.841480	0.000000	5.524648
Eu	0.000000	3.683092	0.000000
Ni	1.841480	5.524642	1.841550
O	1.841480	5.524642	0.000000
O	0.000000	5.524642	1.841550
O	1.841480	3.683092	1.841550
Eu	0.000000	3.683092	3.683098
Ni	1.841480	5.524642	5.524648
O	1.841480	5.524642	3.683098
O	0.000000	5.524642	5.524648
O	1.841480	3.683092	5.524648
Eu	3.682964	0.000000	0.000000
Ni	5.524444	1.841550	1.841550
O	5.524444	1.841550	0.000000
O	3.682964	1.841550	1.841550
O	5.524444	0.000000	1.841550
Eu	3.682964	0.000000	3.683098
Ni	5.524444	1.841550	5.524648
O	5.524444	1.841550	3.683098
O	3.682964	1.841550	5.524648
O	5.524444	0.000000	5.524648
Eu	3.682964	3.683092	0.000000
Ni	5.524444	5.524642	1.841550
O	5.524444	5.524642	0.000000
O	3.682964	5.524642	1.841550
O	5.524444	3.683092	1.841550
Eu	3.682964	3.683092	3.683098
Ni	5.524444	5.524642	5.524648
O	5.524444	5.524642	3.683098
O	3.682964	5.524642	5.524648
O	5.524444	3.683092	5.524648
