112

Er	0.000000	0.000000	0.000000
Er	2.320711	-2.321083	-2.321083
Ge	-1.160355	-1.160542	-3.481625
Ge	3.481066	1.160542	-1.160542
Ge	5.801777	-1.160542	-1.160542
Ge	1.160355	1.160542	-3.481625
O	3.557313	-1.083619	-1.083619
O	-1.084109	1.083619	-3.558547
O	1.084109	-1.083619	-3.558547
O	1.236602	1.237464	-1.237464
O	5.725530	1.083619	-1.083619
O	1.236602	3.404702	-3.404702
O	3.404820	3.404702	-1.237464
O	3.404820	1.237464	-3.404702
Er	4.641422	4.642166	0.000000
Er	6.962133	2.321083	-2.321083
Ge	3.481066	3.481625	-3.481625
Ge	8.122488	5.802708	-1.160542
Ge	10.443199	3.481625	-1.160542
Ge	5.801777	5.802708	-3.481625
O	8.198735	3.558547	-1.083619
O	3.557313	5.725785	-3.558547
O	5.725530	3.558547	-3.558547
O	5.878024	5.879630	-1.237464
O	10.366952	5.725785	-1.083619
O	5.878024	8.046869	-3.404702
O	8.046241	8.046869	-1.237464
O	8.046241	5.879630	-3.404702
Er	-4.641422	0.000000	-4.642166
Er	-2.320711	-2.321083	-6.963249
Ge	-5.801777	-1.160542	-8.123791
Ge	-1.160355	1.160542	-5.802708
Ge	1.160355	-1.160542	-5.802708
Ge	-3.481066	1.160542	-8.123791
O	-1.084109	-1.083619	-5.725785
O	-5.725530	1.083619	-8.200713
O	-3.557313	-1.083619	-8.200713
O	-3.404820	1.237464	-5.879630
O	1.084109	1.083619	-5.725785
O	-3.404820	3.404702	-8.046869
O	-1.236602	3.404702	-5.879630
O	-1.236602	1.237464	-8.046869
Er	0.000000	4.642166	-4.642166
Er	2.320711	2.321083	-6.963249
Ge	-1.160355	3.481625	-8.123791
Ge	3.481066	5.802708	-5.802708
Ge	5.801777	3.481625	-5.802708
Ge	1.160355	5.802708	-8.123791
O	3.557313	3.558547	-5.725785
O	-1.084109	5.725785	-8.200713
O	1.084109	3.558547	-8.200713
O	1.236602	5.879630	-5.879630
O	5.725530	5.725785	-5.725785
O	1.236602	8.046869	-8.046869
O	3.404820	8.046869	-5.879630
O	3.404820	5.879630	-8.046869
Er	4.641422	-4.642166	0.000000
Er	6.962133	-6.963249	-2.321083
Ge	3.481066	-5.802708	-3.481625
Ge	8.122488	-3.481625	-1.160542
Ge	10.443199	-5.802708	-1.160542
Ge	5.801777	-3.481625	-3.481625
O	8.198735	-5.725785	-1.083619
O	3.557313	-3.558547	-3.558547
O	5.725530	-5.725785	-3.558547
O	5.878024	-3.404702	-1.237464
O	10.366952	-3.558547	-1.083619
O	5.878024	-1.237464	-3.404702
O	8.046241	-1.237464	-1.237464
O	8.046241	-3.404702	-3.404702
Er	9.282844	0.000000	0.000000
Er	11.603555	-2.321083	-2.321083
Ge	8.122488	-1.160542	-3.481625
Ge	12.763910	1.160542	-1.160542
Ge	15.084621	-1.160542	-1.160542
Ge	10.443199	1.160542	-3.481625
O	12.840157	-1.083619	-1.083619
O	8.198735	1.083619	-3.558547
O	10.366952	-1.083619	-3.558547
O	10.519446	1.237464	-1.237464
O	15.008374	1.083619	-1.083619
O	10.519446	3.404702	-3.404702
O	12.687663	3.404702	-1.237464
O	12.687663	1.237464	-3.404702
Er	0.000000	-4.642166	-4.642166
Er	2.320711	-6.963249	-6.963249
Ge	-1.160355	-5.802708	-8.123791
Ge	3.481066	-3.481625	-5.802708
Ge	5.801777	-5.802708	-5.802708
Ge	1.160355	-3.481625	-8.123791
O	3.557313	-5.725785	-5.725785
O	-1.084109	-3.558547	-8.200713
O	1.084109	-5.725785	-8.200713
O	1.236602	-3.404702	-5.879630
O	5.725530	-3.558547	-5.725785
O	1.236602	-1.237464	-8.046869
O	3.404820	-1.237464	-5.879630
O	3.404820	-3.404702	-8.046869
Er	4.641422	0.000000	-4.642166
Er	6.962133	-2.321083	-6.963249
Ge	3.481066	-1.160542	-8.123791
Ge	8.122488	1.160542	-5.802708
Ge	10.443199	-1.160542	-5.802708
Ge	5.801777	1.160542	-8.123791
O	8.198735	-1.083619	-5.725785
O	3.557313	1.083619	-8.200713
O	5.725530	-1.083619	-8.200713
O	5.878024	1.237464	-5.879630
O	10.366952	1.083619	-5.725785
O	5.878024	3.404702	-8.046869
O	8.046241	3.404702	-5.879630
O	8.046241	1.237464	-8.046869
