112

Hg	0.000000	0.000000	0.000000
Hg	2.290319	-2.290949	-2.290949
O	3.602563	-0.977844	-0.977844
O	-0.978074	0.977844	-3.604055
O	0.978074	-0.977844	-3.604055
O	1.312244	1.313105	-1.313105
O	5.558712	0.977844	-0.977844
O	1.312244	3.268793	-3.268793
O	3.268393	3.268793	-1.313105
O	3.268393	1.313105	-3.268793
Sc	-1.145159	-1.145475	-3.436424
Sc	3.435478	1.145475	-1.145475
Sc	5.725796	-1.145475	-1.145475
Sc	1.145159	1.145475	-3.436424
Hg	4.580637	4.581899	0.000000
Hg	6.870956	2.290949	-2.290949
O	8.183200	3.604055	-0.977844
O	3.602563	5.559743	-3.604055
O	5.558712	3.604055	-3.604055
O	5.892881	5.895004	-1.313105
O	10.139349	5.559743	-0.977844
O	5.892881	7.850692	-3.268793
O	7.849030	7.850692	-1.313105
O	7.849030	5.895004	-3.268793
Sc	3.435478	3.436424	-3.436424
Sc	8.016115	5.727374	-1.145475
Sc	10.306434	3.436424	-1.145475
Sc	5.725796	5.727374	-3.436424
Hg	-4.580637	0.000000	-4.581899
Hg	-2.290319	-2.290949	-6.872848
O	-0.978074	-0.977844	-5.559743
O	-5.558712	0.977844	-8.185954
O	-3.602563	-0.977844	-8.185954
O	-3.268393	1.313105	-5.895004
O	0.978074	0.977844	-5.559743
O	-3.268393	3.268793	-7.850692
O	-1.312244	3.268793	-5.895004
O	-1.312244	1.313105	-7.850692
Sc	-5.725796	-1.145475	-8.018323
Sc	-1.145159	1.145475	-5.727374
Sc	1.145159	-1.145475	-5.727374
Sc	-3.435478	1.145475	-8.018323
Hg	0.000000	4.581899	-4.581899
Hg	2.290319	2.290949	-6.872848
O	3.602563	3.604055	-5.559743
O	-0.978074	5.559743	-8.185954
O	0.978074	3.604055	-8.185954
O	1.312244	5.895004	-5.895004
O	5.558712	5.559743	-5.559743
O	1.312244	7.850692	-7.850692
O	3.268393	7.850692	-5.895004
O	3.268393	5.895004	-7.850692
Sc	-1.145159	3.436424	-8.018323
Sc	3.435478	5.727374	-5.727374
Sc	5.725796	3.436424	-5.727374
Sc	1.145159	5.727374	-8.018323
Hg	4.580637	-4.581899	0.000000
Hg	6.870956	-6.872848	-2.290949
O	8.183200	-5.559743	-0.977844
O	3.602563	-3.604055	-3.604055
O	5.558712	-5.559743	-3.604055
O	5.892881	-3.268793	-1.313105
O	10.139349	-3.604055	-0.977844
O	5.892881	-1.313105	-3.268793
O	7.849030	-1.313105	-1.313105
O	7.849030	-3.268793	-3.268793
Sc	3.435478	-5.727374	-3.436424
Sc	8.016115	-3.436424	-1.145475
Sc	10.306434	-5.727374	-1.145475
Sc	5.725796	-3.436424	-3.436424
Hg	9.161274	0.000000	0.000000
Hg	11.451593	-2.290949	-2.290949
O	12.763837	-0.977844	-0.977844
O	8.183200	0.977844	-3.604055
O	10.139349	-0.977844	-3.604055
O	10.473518	1.313105	-1.313105
O	14.719986	0.977844	-0.977844
O	10.473518	3.268793	-3.268793
O	12.429667	3.268793	-1.313105
O	12.429667	1.313105	-3.268793
Sc	8.016115	-1.145475	-3.436424
Sc	12.596752	1.145475	-1.145475
Sc	14.887071	-1.145475	-1.145475
Sc	10.306434	1.145475	-3.436424
Hg	0.000000	-4.581899	-4.581899
Hg	2.290319	-6.872848	-6.872848
O	3.602563	-5.559743	-5.559743
O	-0.978074	-3.604055	-8.185954
O	0.978074	-5.559743	-8.185954
O	1.312244	-3.268793	-5.895004
O	5.558712	-3.604055	-5.559743
O	1.312244	-1.313105	-7.850692
O	3.268393	-1.313105	-5.895004
O	3.268393	-3.268793	-7.850692
Sc	-1.145159	-5.727374	-8.018323
Sc	3.435478	-3.436424	-5.727374
Sc	5.725796	-5.727374	-5.727374
Sc	1.145159	-3.436424	-8.018323
Hg	4.580637	0.000000	-4.581899
Hg	6.870956	-2.290949	-6.872848
O	8.183200	-0.977844	-5.559743
O	3.602563	0.977844	-8.185954
O	5.558712	-0.977844	-8.185954
O	5.892881	1.313105	-5.895004
O	10.139349	0.977844	-5.559743
O	5.892881	3.268793	-7.850692
O	7.849030	3.268793	-5.895004
O	7.849030	1.313105	-7.850692
Sc	3.435478	-1.145475	-8.018323
Sc	8.016115	1.145475	-5.727374
Sc	10.306434	-1.145475	-5.727374
Sc	5.725796	1.145475	-8.018323
