40

K	2.098772	2.098772	2.098772
O	2.098772	2.098772	0.000000
O	0.000000	2.098772	2.098772
O	2.098772	0.000000	2.098772
W	0.000000	0.000000	0.000000
K	2.098772	2.098772	6.296317
O	2.098772	2.098772	4.197545
O	0.000000	2.098772	6.296317
O	2.098772	0.000000	6.296317
W	0.000000	0.000000	4.197545
K	2.098772	6.296317	2.098772
O	2.098772	6.296317	0.000000
O	0.000000	6.296317	2.098772
O	2.098772	4.197545	2.098772
W	0.000000	4.197545	0.000000
K	2.098772	6.296317	6.296317
O	2.098772	6.296317	4.197545
O	0.000000	6.296317	6.296317
O	2.098772	4.197545	6.296317
W	0.000000	4.197545	4.197545
K	6.296317	2.098772	2.098772
O	6.296317	2.098772	0.000000
O	4.197545	2.098772	2.098772
O	6.296317	0.000000	2.098772
W	4.197545	0.000000	0.000000
K	6.296317	2.098772	6.296317
O	6.296317	2.098772	4.197545
O	4.197545	2.098772	6.296317
O	6.296317	0.000000	6.296317
W	4.197545	0.000000	4.197545
K	6.296317	6.296317	2.098772
O	6.296317	6.296317	0.000000
O	4.197545	6.296317	2.098772
O	6.296317	4.197545	2.098772
W	4.197545	4.197545	0.000000
K	6.296317	6.296317	6.296317
O	6.296317	6.296317	4.197545
O	4.197545	6.296317	6.296317
O	6.296317	4.197545	6.296317
W	4.197545	4.197545	4.197545
