40

Lu	0.000000	0.000000	0.000000
O	2.014557	2.014557	0.000000
O	2.014557	0.000000	2.014557
O	0.000000	2.014557	2.014557
Ta	2.014557	2.014557	2.014557
Lu	0.000000	0.000000	4.029114
O	2.014557	2.014557	4.029114
O	2.014557	0.000000	6.043671
O	0.000000	2.014557	6.043671
Ta	2.014557	2.014557	6.043671
Lu	0.000000	4.029114	0.000000
O	2.014557	6.043671	0.000000
O	2.014557	4.029114	2.014557
O	0.000000	6.043671	2.014557
Ta	2.014557	6.043671	2.014557
Lu	0.000000	4.029114	4.029114
O	2.014557	6.043671	4.029114
O	2.014557	4.029114	6.043671
O	0.000000	6.043671	6.043671
Ta	2.014557	6.043671	6.043671
Lu	4.029114	0.000000	0.000000
O	6.043671	2.014557	0.000000
O	6.043671	0.000000	2.014557
O	4.029114	2.014557	2.014557
Ta	6.043671	2.014557	2.014557
Lu	4.029114	0.000000	4.029114
O	6.043671	2.014557	4.029114
O	6.043671	0.000000	6.043671
O	4.029114	2.014557	6.043671
Ta	6.043671	2.014557	6.043671
Lu	4.029114	4.029114	0.000000
O	6.043671	6.043671	0.000000
O	6.043671	4.029114	2.014557
O	4.029114	6.043671	2.014557
Ta	6.043671	6.043671	2.014557
Lu	4.029114	4.029114	4.029114
O	6.043671	6.043671	4.029114
O	6.043671	4.029114	6.043671
O	4.029114	6.043671	6.043671
Ta	6.043671	6.043671	6.043671
