40

I	2.172620	2.172620	2.172620
O	0.000000	2.172620	2.172620
O	2.172620	0.000000	2.172620
O	2.172620	2.172620	0.000000
Sr	0.000000	0.000000	0.000000
I	2.172620	2.172620	6.517861
O	0.000000	2.172620	6.517861
O	2.172620	0.000000	6.517861
O	2.172620	2.172620	4.345241
Sr	0.000000	0.000000	4.345241
I	2.172620	6.517861	2.172620
O	0.000000	6.517861	2.172620
O	2.172620	4.345241	2.172620
O	2.172620	6.517861	0.000000
Sr	0.000000	4.345241	0.000000
I	2.172620	6.517861	6.517861
O	0.000000	6.517861	6.517861
O	2.172620	4.345241	6.517861
O	2.172620	6.517861	4.345241
Sr	0.000000	4.345241	4.345241
I	6.517861	2.172620	2.172620
O	4.345241	2.172620	2.172620
O	6.517861	0.000000	2.172620
O	6.517861	2.172620	0.000000
Sr	4.345241	0.000000	0.000000
I	6.517861	2.172620	6.517861
O	4.345241	2.172620	6.517861
O	6.517861	0.000000	6.517861
O	6.517861	2.172620	4.345241
Sr	4.345241	0.000000	4.345241
I	6.517861	6.517861	2.172620
O	4.345241	6.517861	2.172620
O	6.517861	4.345241	2.172620
O	6.517861	6.517861	0.000000
Sr	4.345241	4.345241	0.000000
I	6.517861	6.517861	6.517861
O	4.345241	6.517861	6.517861
O	6.517861	4.345241	6.517861
O	6.517861	6.517861	4.345241
Sr	4.345241	4.345241	4.345241
