40

Be	1.744455	1.744455	1.744455
O	0.000000	1.744455	1.744455
O	1.744455	0.000000	1.744455
O	1.744455	1.744455	0.000000
Sc	0.000000	0.000000	0.000000
Be	1.744455	1.744455	5.233365
O	0.000000	1.744455	5.233365
O	1.744455	0.000000	5.233365
O	1.744455	1.744455	3.488910
Sc	0.000000	0.000000	3.488910
Be	1.744455	5.233365	1.744455
O	0.000000	5.233365	1.744455
O	1.744455	3.488910	1.744455
O	1.744455	5.233365	0.000000
Sc	0.000000	3.488910	0.000000
Be	1.744455	5.233365	5.233365
O	0.000000	5.233365	5.233365
O	1.744455	3.488910	5.233365
O	1.744455	5.233365	3.488910
Sc	0.000000	3.488910	3.488910
Be	5.233365	1.744455	1.744455
O	3.488910	1.744455	1.744455
O	5.233365	0.000000	1.744455
O	5.233365	1.744455	0.000000
Sc	3.488910	0.000000	0.000000
Be	5.233365	1.744455	5.233365
O	3.488910	1.744455	5.233365
O	5.233365	0.000000	5.233365
O	5.233365	1.744455	3.488910
Sc	3.488910	0.000000	3.488910
Be	5.233365	5.233365	1.744455
O	3.488910	5.233365	1.744455
O	5.233365	3.488910	1.744455
O	5.233365	5.233365	0.000000
Sc	3.488910	3.488910	0.000000
Be	5.233365	5.233365	5.233365
O	3.488910	5.233365	5.233365
O	5.233365	3.488910	5.233365
O	5.233365	5.233365	3.488910
Sc	3.488910	3.488910	3.488910
