40

Gd	0.000000	0.000000	0.000000
Np	2.223553	2.223553	2.223553
O	2.223553	2.223553	0.000000
O	2.223553	0.000000	2.223553
O	0.000000	2.223553	2.223553
Gd	0.000000	0.000000	4.447110
Np	2.223553	2.223553	6.670663
O	2.223553	2.223553	4.447110
O	2.223553	0.000000	6.670663
O	0.000000	2.223553	6.670663
Gd	0.000000	4.447110	0.000000
Np	2.223553	6.670663	2.223553
O	2.223553	6.670663	0.000000
O	2.223553	4.447110	2.223553
O	0.000000	6.670663	2.223553
Gd	0.000000	4.447110	4.447110
Np	2.223553	6.670663	6.670663
O	2.223553	6.670663	4.447110
O	2.223553	4.447110	6.670663
O	0.000000	6.670663	6.670663
Gd	4.447110	0.000000	0.000000
Np	6.670663	2.223553	2.223553
O	6.670663	2.223553	0.000000
O	6.670663	0.000000	2.223553
O	4.447110	2.223553	2.223553
Gd	4.447110	0.000000	4.447110
Np	6.670663	2.223553	6.670663
O	6.670663	2.223553	4.447110
O	6.670663	0.000000	6.670663
O	4.447110	2.223553	6.670663
Gd	4.447110	4.447110	0.000000
Np	6.670663	6.670663	2.223553
O	6.670663	6.670663	0.000000
O	6.670663	4.447110	2.223553
O	4.447110	6.670663	2.223553
Gd	4.447110	4.447110	4.447110
Np	6.670663	6.670663	6.670663
O	6.670663	6.670663	4.447110
O	6.670663	4.447110	6.670663
O	4.447110	6.670663	6.670663
