40

Fe	1.880450	1.880450	1.880450
O	1.880450	1.880450	0.000000
O	0.000000	1.880450	1.880450
O	1.880450	0.000000	1.880450
Pd	0.000000	0.000000	0.000000
Fe	1.880450	1.880450	5.641343
O	1.880450	1.880450	3.760893
O	0.000000	1.880450	5.641343
O	1.880450	0.000000	5.641343
Pd	0.000000	0.000000	3.760893
Fe	1.880450	5.641343	1.880450
O	1.880450	5.641343	0.000000
O	0.000000	5.641343	1.880450
O	1.880450	3.760893	1.880450
Pd	0.000000	3.760893	0.000000
Fe	1.880450	5.641343	5.641343
O	1.880450	5.641343	3.760893
O	0.000000	5.641343	5.641343
O	1.880450	3.760893	5.641343
Pd	0.000000	3.760893	3.760893
Fe	5.641343	1.880450	1.880450
O	5.641343	1.880450	0.000000
O	3.760893	1.880450	1.880450
O	5.641343	0.000000	1.880450
Pd	3.760893	0.000000	0.000000
Fe	5.641343	1.880450	5.641343
O	5.641343	1.880450	3.760893
O	3.760893	1.880450	5.641343
O	5.641343	0.000000	5.641343
Pd	3.760893	0.000000	3.760893
Fe	5.641343	5.641343	1.880450
O	5.641343	5.641343	0.000000
O	3.760893	5.641343	1.880450
O	5.641343	3.760893	1.880450
Pd	3.760893	3.760893	0.000000
Fe	5.641343	5.641343	5.641343
O	5.641343	5.641343	3.760893
O	3.760893	5.641343	5.641343
O	5.641343	3.760893	5.641343
Pd	3.760893	3.760893	3.760893
