112

Cu	0.000000	0.000000	0.000000
Cu	2.453744	-2.455083	-2.455083
O	3.787231	-1.116215	-1.116215
O	-1.120267	1.116215	-3.793952
O	1.120267	-1.116215	-3.793952
O	1.333487	1.338869	-1.338869
O	6.027754	1.116215	-1.116215
O	1.333487	3.571288	-3.571288
O	3.574011	3.571288	-1.338869
O	3.574011	1.338868	-3.571288
Pa	-1.226877	-1.227542	-3.682625
Pa	6.134364	-1.227542	-1.227542
Pa	3.680621	1.227542	-1.227542
Pa	1.226877	1.227542	-3.682625
Cu	4.907496	4.910161	0.000000
Cu	7.361239	2.455078	-2.455083
O	8.694727	3.793946	-1.116215
O	3.787229	6.026376	-3.793952
O	6.027763	3.793946	-3.793952
O	6.240983	6.249030	-1.338869
O	10.935250	6.026376	-1.116215
O	6.240983	8.481449	-3.571288
O	8.481506	8.481449	-1.338869
O	8.481506	6.249029	-3.571288
Pa	3.680619	3.682619	-3.682625
Pa	11.041860	3.682619	-1.227542
Pa	8.588116	6.137703	-1.227542
Pa	6.134373	6.137703	-3.682625
Cu	-4.907496	0.000000	-4.910161
Cu	-2.453752	-2.455083	-7.365244
O	-1.120265	-1.116215	-6.026376
O	-6.027763	1.116215	-8.704113
O	-3.787229	-1.116215	-8.704113
O	-3.574009	1.338869	-6.249030
O	1.120259	1.116215	-6.026376
O	-3.574009	3.571288	-8.481449
O	-1.333485	3.571288	-6.249030
O	-1.333485	1.338868	-8.481449
Pa	-6.134373	-1.227542	-8.592786
Pa	1.226869	-1.227542	-6.137703
Pa	-1.226875	1.227542	-6.137703
Pa	-3.680619	1.227542	-8.592786
Cu	0.000000	4.910161	-4.910161
Cu	2.453744	2.455078	-7.365244
O	3.787231	3.793946	-6.026376
O	-1.120267	6.026376	-8.704113
O	1.120267	3.793946	-8.704113
O	1.333487	6.249030	-6.249030
O	6.027754	6.026376	-6.026376
O	1.333487	8.481449	-8.481449
O	3.574011	8.481449	-6.249030
O	3.574011	6.249029	-8.481449
Pa	-1.226877	3.682619	-8.592786
Pa	6.134364	3.682619	-6.137703
Pa	3.680621	6.137703	-6.137703
Pa	1.226877	6.137703	-8.592786
Cu	4.907496	-4.910161	0.000000
Cu	7.361239	-7.365244	-2.455083
O	8.694727	-6.026376	-1.116215
O	3.787229	-3.793946	-3.793952
O	6.027763	-6.026376	-3.793952
O	6.240983	-3.571292	-1.338869
O	10.935250	-3.793946	-1.116215
O	6.240983	-1.338873	-3.571288
O	8.481506	-1.338873	-1.338869
O	8.481506	-3.571293	-3.571288
Pa	3.680619	-6.137703	-3.682625
Pa	11.041860	-6.137703	-1.227542
Pa	8.588116	-3.682619	-1.227542
Pa	6.134373	-3.682619	-3.682625
Cu	9.814991	0.000000	0.000000
Cu	12.268735	-2.455083	-2.455083
O	13.602222	-1.116215	-1.116215
O	8.694724	1.116215	-3.793952
O	10.935258	-1.116215	-3.793952
O	11.148478	1.338869	-1.338869
O	15.842746	1.116215	-1.116215
O	11.148478	3.571288	-3.571288
O	13.389002	3.571288	-1.338869
O	13.389002	1.338868	-3.571288
Pa	8.588114	-1.227542	-3.682625
Pa	15.949356	-1.227542	-1.227542
Pa	13.495612	1.227542	-1.227542
Pa	11.041868	1.227542	-3.682625
Cu	0.000000	-4.910161	-4.910161
Cu	2.453744	-7.365244	-7.365244
O	3.787231	-6.026376	-6.026376
O	-1.120267	-3.793946	-8.704113
O	1.120267	-6.026376	-8.704113
O	1.333487	-3.571292	-6.249030
O	6.027754	-3.793946	-6.026376
O	1.333487	-1.338873	-8.481449
O	3.574011	-1.338873	-6.249030
O	3.574011	-3.571293	-8.481449
Pa	-1.226877	-6.137703	-8.592786
Pa	6.134364	-6.137703	-6.137703
Pa	3.680621	-3.682619	-6.137703
Pa	1.226877	-3.682619	-8.592786
Cu	4.907496	0.000000	-4.910161
Cu	7.361239	-2.455083	-7.365244
O	8.694727	-1.116215	-6.026376
O	3.787229	1.116215	-8.704113
O	6.027763	-1.116215	-8.704113
O	6.240983	1.338869	-6.249030
O	10.935250	1.116215	-6.026376
O	6.240983	3.571288	-8.481449
O	8.481506	3.571288	-6.249030
O	8.481506	1.338868	-8.481449
Pa	3.680619	-1.227542	-8.592786
Pa	11.041860	-1.227542	-6.137703
Pa	8.588116	1.227542	-6.137703
Pa	6.134373	1.227542	-8.592786
