112

O	1.033623	1.034873	-1.034873
O	3.566913	-1.498783	-1.498783
O	-1.499667	1.498783	-3.568540
O	1.499667	-1.498783	-3.568540
O	1.033623	4.032439	-4.032439
O	4.032957	4.032439	-1.034873
O	4.032957	1.034873	-4.032439
O	6.566248	1.498783	-1.498783
Os	0.000000	0.000000	0.000000
Os	2.533290	-2.533656	-2.533656
Tl	-1.266645	-1.266833	-3.800489
Tl	6.333225	-1.266833	-1.266833
Tl	1.266645	1.266833	-3.800489
Tl	3.799935	1.266833	-1.266833
O	6.100201	6.102192	-1.034873
O	8.633491	3.568535	-1.498783
O	3.566911	6.566101	-3.568540
O	6.566246	3.568535	-3.568540
O	6.100201	9.099758	-4.032439
O	9.099536	9.099758	-1.034873
O	9.099536	6.102192	-4.032439
O	11.632826	6.566101	-1.498783
Os	5.066578	5.067318	0.000000
Os	7.599869	2.533662	-2.533656
Tl	3.799933	3.800485	-3.800489
Tl	11.399804	3.800485	-1.266833
Tl	6.333224	6.334152	-3.800489
Tl	8.866514	6.334152	-1.266833
O	-4.032956	1.034873	-6.102192
O	-1.499666	-1.498783	-6.566101
O	-6.566246	1.498783	-8.635858
O	-3.566911	-1.498783	-8.635858
O	-4.032956	4.032439	-9.099758
O	-1.033621	4.032439	-6.102192
O	-1.033621	1.034873	-9.099758
O	1.499669	1.498783	-6.566101
Os	-5.066578	0.000000	-5.067318
Os	-2.533288	-2.533656	-7.600975
Tl	-6.333223	-1.266833	-8.867808
Tl	1.266647	-1.266833	-6.334152
Tl	-3.799933	1.266833	-8.867808
Tl	-1.266643	1.266833	-6.334152
O	1.033623	6.102192	-6.102192
O	3.566913	3.568535	-6.566101
O	-1.499667	6.566101	-8.635858
O	1.499667	3.568535	-8.635858
O	1.033623	9.099758	-9.099758
O	4.032957	9.099758	-6.102192
O	4.032957	6.102192	-9.099758
O	6.566248	6.566101	-6.566101
Os	0.000000	5.067318	-5.067318
Os	2.533290	2.533662	-7.600975
Tl	-1.266645	3.800485	-8.867808
Tl	6.333225	3.800485	-6.334152
Tl	1.266645	6.334152	-8.867808
Tl	3.799935	6.334152	-6.334152
O	6.100201	-4.032445	-1.034873
O	8.633491	-6.566101	-1.498783
O	3.566911	-3.568535	-3.568540
O	6.566246	-6.566101	-3.568540
O	6.100201	-1.034879	-4.032439
O	9.099536	-1.034879	-1.034873
O	9.099536	-4.032445	-4.032439
O	11.632826	-3.568535	-1.498783
Os	5.066578	-5.067318	0.000000
Os	7.599869	-7.600975	-2.533656
Tl	3.799933	-6.334152	-3.800489
Tl	11.399804	-6.334152	-1.266833
Tl	6.333224	-3.800485	-3.800489
Tl	8.866514	-3.800485	-1.266833
O	11.166780	1.034873	-1.034873
O	13.700070	-1.498783	-1.498783
O	8.633490	1.498783	-3.568540
O	11.632824	-1.498783	-3.568540
O	11.166780	4.032439	-4.032439
O	14.166114	4.032439	-1.034873
O	14.166114	1.034873	-4.032439
O	16.699404	1.498783	-1.498783
Os	10.133157	0.000000	0.000000
Os	12.666447	-2.533656	-2.533656
Tl	8.866512	-1.266833	-3.800489
Tl	16.466382	-1.266833	-1.266833
Tl	11.399802	1.266833	-3.800489
Tl	13.933092	1.266833	-1.266833
O	1.033623	-4.032445	-6.102192
O	3.566913	-6.566101	-6.566101
O	-1.499667	-3.568535	-8.635858
O	1.499667	-6.566101	-8.635858
O	1.033623	-1.034879	-9.099758
O	4.032957	-1.034879	-6.102192
O	4.032957	-4.032445	-9.099758
O	6.566248	-3.568535	-6.566101
Os	0.000000	-5.067318	-5.067318
Os	2.533290	-7.600975	-7.600975
Tl	-1.266645	-6.334152	-8.867808
Tl	6.333225	-6.334152	-6.334152
Tl	1.266645	-3.800485	-8.867808
Tl	3.799935	-3.800485	-6.334152
O	6.100201	1.034873	-6.102192
O	8.633491	-1.498783	-6.566101
O	3.566911	1.498783	-8.635858
O	6.566246	-1.498783	-8.635858
O	6.100201	4.032439	-9.099758
O	9.099536	4.032439	-6.102192
O	9.099536	1.034873	-9.099758
O	11.632826	1.498783	-6.566101
Os	5.066578	0.000000	-5.067318
Os	7.599869	-2.533656	-7.600975
Tl	3.799933	-1.266833	-8.867808
Tl	11.399804	-1.266833	-6.334152
Tl	6.333224	1.266833	-8.867808
Tl	8.866514	1.266833	-6.334152
