40

Li	1.767101	1.767101	1.767101
O	0.000000	1.767101	1.767101
O	1.767101	0.000000	1.767101
O	1.767101	1.767101	0.000000
Re	0.000000	0.000000	0.000000
Li	1.767101	1.767101	5.301303
O	0.000000	1.767101	5.301303
O	1.767101	0.000000	5.301303
O	1.767101	1.767101	3.534202
Re	0.000000	0.000000	3.534202
Li	1.767101	5.301303	1.767101
O	0.000000	5.301303	1.767101
O	1.767101	3.534202	1.767101
O	1.767101	5.301303	0.000000
Re	0.000000	3.534202	0.000000
Li	1.767101	5.301303	5.301303
O	0.000000	5.301303	5.301303
O	1.767101	3.534202	5.301303
O	1.767101	5.301303	3.534202
Re	0.000000	3.534202	3.534202
Li	5.301303	1.767101	1.767101
O	3.534202	1.767101	1.767101
O	5.301303	0.000000	1.767101
O	5.301303	1.767101	0.000000
Re	3.534202	0.000000	0.000000
Li	5.301303	1.767101	5.301303
O	3.534202	1.767101	5.301303
O	5.301303	0.000000	5.301303
O	5.301303	1.767101	3.534202
Re	3.534202	0.000000	3.534202
Li	5.301303	5.301303	1.767101
O	3.534202	5.301303	1.767101
O	5.301303	3.534202	1.767101
O	5.301303	5.301303	0.000000
Re	3.534202	3.534202	0.000000
Li	5.301303	5.301303	5.301303
O	3.534202	5.301303	5.301303
O	5.301303	3.534202	5.301303
O	5.301303	5.301303	3.534202
Re	3.534202	3.534202	3.534202
