112

Mg	0.000000	0.000000	0.000000
Mg	2.134543	-2.135136	-2.135136
O	-1.012239	1.011930	-3.258342
O	3.256847	-1.011930	-1.011930
O	1.012240	-1.011930	-3.258342
O	1.122304	1.123206	-1.123206
O	5.281316	1.011930	-1.011930
O	1.122304	3.147066	-3.147066
O	3.146773	3.147066	-1.123206
O	3.146773	1.123206	-3.147066
Ru	-1.067272	-1.067563	-3.202699
Ru	1.067272	1.067563	-3.202699
Ru	3.201815	1.067563	-1.067563
Ru	5.336348	-1.067563	-1.067563
Mg	4.269080	4.270271	0.000000
Mg	6.403623	2.135135	-2.135136
O	3.256840	5.282201	-3.258342
O	7.525927	3.258341	-1.011930
O	5.281319	3.258341	-3.258342
O	5.391384	5.393477	-1.123206
O	9.550396	5.282201	-1.011930
O	5.391384	7.417337	-3.147066
O	7.415853	7.417337	-1.123206
O	7.415853	5.393477	-3.147066
Ru	3.201808	3.202708	-3.202699
Ru	5.336352	5.337834	-3.202699
Ru	7.470895	5.337834	-1.067563
Ru	9.605428	3.202708	-1.067563
Mg	-4.269080	0.000000	-4.270271
Mg	-2.134537	-2.135136	-6.405407
O	-5.281319	1.011930	-7.528613
O	-1.012233	-1.011930	-5.282201
O	-3.256840	-1.011930	-7.528613
O	-3.146776	1.123206	-5.393477
O	1.012236	1.011930	-5.282201
O	-3.146776	3.147066	-7.417337
O	-1.122307	3.147066	-5.393477
O	-1.122307	1.123206	-7.417337
Ru	-5.336352	-1.067563	-7.472970
Ru	-3.201808	1.067563	-7.472970
Ru	-1.067265	1.067563	-5.337834
Ru	1.067268	-1.067563	-5.337834
Mg	0.000000	4.270271	-4.270271
Mg	2.134543	2.135135	-6.405407
O	-1.012239	5.282201	-7.528613
O	3.256847	3.258341	-5.282201
O	1.012240	3.258341	-7.528613
O	1.122304	5.393477	-5.393477
O	5.281316	5.282201	-5.282201
O	1.122304	7.417337	-7.417337
O	3.146773	7.417337	-5.393477
O	3.146773	5.393477	-7.417337
Ru	-1.067272	3.202708	-7.472970
Ru	1.067272	5.337834	-7.472970
Ru	3.201815	5.337834	-5.337834
Ru	5.336348	3.202708	-5.337834
Mg	4.269080	-4.270271	0.000000
Mg	6.403623	-6.405407	-2.135136
O	3.256840	-3.258341	-3.258342
O	7.525927	-5.282201	-1.011930
O	5.281319	-5.282201	-3.258342
O	5.391384	-3.147065	-1.123206
O	9.550396	-3.258341	-1.011930
O	5.391384	-1.123205	-3.147066
O	7.415853	-1.123205	-1.123206
O	7.415853	-3.147065	-3.147066
Ru	3.201808	-5.337834	-3.202699
Ru	5.336352	-3.202708	-3.202699
Ru	7.470895	-3.202708	-1.067563
Ru	9.605428	-5.337834	-1.067563
Mg	8.538160	0.000000	0.000000
Mg	10.672703	-2.135136	-2.135136
O	7.525920	1.011930	-3.258342
O	11.795007	-1.011930	-1.011930
O	9.550399	-1.011930	-3.258342
O	9.660464	1.123206	-1.123206
O	13.819476	1.011930	-1.011930
O	9.660464	3.147066	-3.147066
O	11.684933	3.147066	-1.123206
O	11.684933	1.123206	-3.147066
Ru	7.470888	-1.067563	-3.202699
Ru	9.605432	1.067563	-3.202699
Ru	11.739975	1.067563	-1.067563
Ru	13.874508	-1.067563	-1.067563
Mg	0.000000	-4.270271	-4.270271
Mg	2.134543	-6.405407	-6.405407
O	-1.012239	-3.258341	-7.528613
O	3.256847	-5.282201	-5.282201
O	1.012240	-5.282201	-7.528613
O	1.122304	-3.147065	-5.393477
O	5.281316	-3.258341	-5.282201
O	1.122304	-1.123205	-7.417337
O	3.146773	-1.123205	-5.393477
O	3.146773	-3.147065	-7.417337
Ru	-1.067272	-5.337834	-7.472970
Ru	1.067272	-3.202708	-7.472970
Ru	3.201815	-3.202708	-5.337834
Ru	5.336348	-5.337834	-5.337834
Mg	4.269080	0.000000	-4.270271
Mg	6.403623	-2.135136	-6.405407
O	3.256840	1.011930	-7.528613
O	7.525927	-1.011930	-5.282201
O	5.281319	-1.011930	-7.528613
O	5.391384	1.123206	-5.393477
O	9.550396	1.011930	-5.282201
O	5.391384	3.147066	-7.417337
O	7.415853	3.147066	-5.393477
O	7.415853	1.123206	-7.417337
Ru	3.201808	-1.067563	-7.472970
Ru	5.336352	1.067563	-7.472970
Ru	7.470895	1.067563	-5.337834
Ru	9.605428	-1.067563	-5.337834
