40

Be	1.723010	1.723010	1.723010
O	1.723010	1.723010	0.000000
O	0.000000	1.723010	1.723010
O	1.723010	0.000000	1.723010
Zn	0.000000	0.000000	0.000000
Be	1.723010	1.723010	5.169047
O	1.723010	1.723010	3.446036
O	0.000000	1.723010	5.169047
O	1.723010	0.000000	5.169047
Zn	0.000000	0.000000	3.446036
Be	1.723010	5.169047	1.723010
O	1.723010	5.169047	0.000000
O	0.000000	5.169047	1.723010
O	1.723010	3.446036	1.723010
Zn	0.000000	3.446036	0.000000
Be	1.723010	5.169047	5.169047
O	1.723010	5.169047	3.446036
O	0.000000	5.169047	5.169047
O	1.723010	3.446036	5.169047
Zn	0.000000	3.446036	3.446036
Be	5.169047	1.723010	1.723010
O	5.169047	1.723010	0.000000
O	3.446036	1.723010	1.723010
O	5.169047	0.000000	1.723010
Zn	3.446036	0.000000	0.000000
Be	5.169047	1.723010	5.169047
O	5.169047	1.723010	3.446036
O	3.446036	1.723010	5.169047
O	5.169047	0.000000	5.169047
Zn	3.446036	0.000000	3.446036
Be	5.169047	5.169047	1.723010
O	5.169047	5.169047	0.000000
O	3.446036	5.169047	1.723010
O	5.169047	3.446036	1.723010
Zn	3.446036	3.446036	0.000000
Be	5.169047	5.169047	5.169047
O	5.169047	5.169047	3.446036
O	3.446036	5.169047	5.169047
O	5.169047	3.446036	5.169047
Zn	3.446036	3.446036	3.446036
