40

Be	0.000000	0.000000	0.000000
O	0.000000	1.851081	1.851081
O	1.851081	0.000000	1.851081
O	1.851081	1.851081	0.000000
Zn	1.851081	1.851081	1.851081
Be	0.000000	0.000000	3.702162
O	0.000000	1.851081	5.553243
O	1.851081	0.000000	5.553243
O	1.851081	1.851081	3.702162
Zn	1.851081	1.851081	5.553243
Be	0.000000	3.702162	0.000000
O	0.000000	5.553243	1.851081
O	1.851081	3.702162	1.851081
O	1.851081	5.553243	0.000000
Zn	1.851081	5.553243	1.851081
Be	0.000000	3.702162	3.702162
O	0.000000	5.553243	5.553243
O	1.851081	3.702162	5.553243
O	1.851081	5.553243	3.702162
Zn	1.851081	5.553243	5.553243
Be	3.702162	0.000000	0.000000
O	3.702162	1.851081	1.851081
O	5.553243	0.000000	1.851081
O	5.553243	1.851081	0.000000
Zn	5.553243	1.851081	1.851081
Be	3.702162	0.000000	3.702162
O	3.702162	1.851081	5.553243
O	5.553243	0.000000	5.553243
O	5.553243	1.851081	3.702162
Zn	5.553243	1.851081	5.553243
Be	3.702162	3.702162	0.000000
O	3.702162	5.553243	1.851081
O	5.553243	3.702162	1.851081
O	5.553243	5.553243	0.000000
Zn	5.553243	5.553243	1.851081
Be	3.702162	3.702162	3.702162
O	3.702162	5.553243	5.553243
O	5.553243	3.702162	5.553243
O	5.553243	5.553243	3.702162
Zn	5.553243	5.553243	5.553243
