40

Ga	0.000000	0.000000	0.000000
In	2.087425	2.087425	2.087425
O	0.000000	2.087425	2.087425
O	2.087425	0.000000	2.087425
O	2.087425	2.087425	0.000000
Ga	0.000000	0.000000	4.174849
In	2.087425	2.087425	6.262274
O	0.000000	2.087425	6.262274
O	2.087425	0.000000	6.262274
O	2.087425	2.087425	4.174849
Ga	0.000000	4.174849	0.000000
In	2.087425	6.262274	2.087425
O	0.000000	6.262274	2.087425
O	2.087425	4.174849	2.087425
O	2.087425	6.262274	0.000000
Ga	0.000000	4.174849	4.174849
In	2.087425	6.262274	6.262274
O	0.000000	6.262274	6.262274
O	2.087425	4.174849	6.262274
O	2.087425	6.262274	4.174849
Ga	4.174849	0.000000	0.000000
In	6.262274	2.087425	2.087425
O	4.174849	2.087425	2.087425
O	6.262274	0.000000	2.087425
O	6.262274	2.087425	0.000000
Ga	4.174849	0.000000	4.174849
In	6.262274	2.087425	6.262274
O	4.174849	2.087425	6.262274
O	6.262274	0.000000	6.262274
O	6.262274	2.087425	4.174849
Ga	4.174849	4.174849	0.000000
In	6.262274	6.262274	2.087425
O	4.174849	6.262274	2.087425
O	6.262274	4.174849	2.087425
O	6.262274	6.262274	0.000000
Ga	4.174849	4.174849	4.174849
In	6.262274	6.262274	6.262274
O	4.174849	6.262274	6.262274
O	6.262274	4.174849	6.262274
O	6.262274	6.262274	4.174849
