40

Ga	1.927832	1.927832	1.927832
In	0.000000	0.000000	0.000000
O	1.927832	1.927832	0.000000
O	1.927832	0.000000	1.927832
O	0.000000	1.927832	1.927832
Ga	1.927832	1.927832	5.783496
In	0.000000	0.000000	3.855664
O	1.927832	1.927832	3.855664
O	1.927832	0.000000	5.783496
O	0.000000	1.927832	5.783496
Ga	1.927832	5.783496	1.927832
In	0.000000	3.855664	0.000000
O	1.927832	5.783496	0.000000
O	1.927832	3.855664	1.927832
O	0.000000	5.783496	1.927832
Ga	1.927832	5.783496	5.783496
In	0.000000	3.855664	3.855664
O	1.927832	5.783496	3.855664
O	1.927832	3.855664	5.783496
O	0.000000	5.783496	5.783496
Ga	5.783496	1.927832	1.927832
In	3.855664	0.000000	0.000000
O	5.783496	1.927832	0.000000
O	5.783496	0.000000	1.927832
O	3.855664	1.927832	1.927832
Ga	5.783496	1.927832	5.783496
In	3.855664	0.000000	3.855664
O	5.783496	1.927832	3.855664
O	5.783496	0.000000	5.783496
O	3.855664	1.927832	5.783496
Ga	5.783496	5.783496	1.927832
In	3.855664	3.855664	0.000000
O	5.783496	5.783496	0.000000
O	5.783496	3.855664	1.927832
O	3.855664	5.783496	1.927832
Ga	5.783496	5.783496	5.783496
In	3.855664	3.855664	3.855664
O	5.783496	5.783496	3.855664
O	5.783496	3.855664	5.783496
O	3.855664	5.783496	5.783496
