112

Dy	0.000000	0.000000	0.000000
Dy	2.245416	-2.245708	-2.245708
O	-0.991882	0.991278	-3.500138
O	3.498950	-0.991278	-0.991278
O	0.991882	-0.991278	-3.500138
O	1.253534	1.254430	-1.254430
O	5.482705	0.991278	-0.991278
O	1.253534	3.236997	-3.236997
O	3.237289	3.236997	-1.254430
O	3.237289	1.254430	-3.236997
Si	-1.122708	-1.122854	-3.368562
Si	1.122708	1.122854	-3.368562
Si	5.613531	-1.122854	-1.122854
Si	3.368124	1.122854	-1.122854
Dy	4.490827	4.491422	0.000000
Dy	6.736244	2.245713	-2.245708
O	3.498945	5.482700	-3.500138
O	7.989778	3.500143	-0.991278
O	5.482710	3.500143	-3.500138
O	5.744361	5.745851	-1.254430
O	9.973532	5.482700	-0.991278
O	5.744361	7.728418	-3.236997
O	7.728116	7.728418	-1.254430
O	7.728116	5.745851	-3.236997
Si	3.368119	3.368567	-3.368562
Si	5.613536	5.614276	-3.368562
Si	10.104358	3.368567	-1.122854
Si	7.858952	5.614276	-1.122854
Dy	-4.490827	0.000000	-4.491422
Dy	-2.245411	-2.245708	-6.737130
O	-5.482710	0.991278	-7.991560
O	-0.991877	-0.991278	-5.482700
O	-3.498945	-0.991278	-7.991560
O	-3.237293	1.254430	-5.745851
O	0.991877	0.991278	-5.482700
O	-3.237293	3.236997	-7.728418
O	-1.253539	3.236997	-5.745851
O	-1.253539	1.254430	-7.728418
Si	-5.613536	-1.122854	-7.859984
Si	-3.368119	1.122854	-7.859984
Si	1.122703	-1.122854	-5.614276
Si	-1.122703	1.122854	-5.614276
Dy	0.000000	4.491422	-4.491422
Dy	2.245416	2.245713	-6.737130
O	-0.991882	5.482700	-7.991560
O	3.498950	3.500143	-5.482700
O	0.991882	3.500143	-7.991560
O	1.253534	5.745851	-5.745851
O	5.482705	5.482700	-5.482700
O	1.253534	7.728418	-7.728418
O	3.237289	7.728418	-5.745851
O	3.237289	5.745851	-7.728418
Si	-1.122708	3.368567	-7.859984
Si	1.122708	5.614276	-7.859984
Si	5.613531	3.368567	-5.614276
Si	3.368124	5.614276	-5.614276
Dy	4.490827	-4.491422	0.000000
Dy	6.736244	-6.737130	-2.245708
O	3.498945	-3.500143	-3.500138
O	7.989778	-5.482700	-0.991278
O	5.482710	-5.482700	-3.500138
O	5.744361	-3.236992	-1.254430
O	9.973532	-3.500143	-0.991278
O	5.744361	-1.254425	-3.236997
O	7.728116	-1.254425	-1.254430
O	7.728116	-3.236992	-3.236997
Si	3.368119	-5.614276	-3.368562
Si	5.613536	-3.368567	-3.368562
Si	10.104358	-5.614276	-1.122854
Si	7.858952	-3.368567	-1.122854
Dy	8.981655	0.000000	0.000000
Dy	11.227071	-2.245708	-2.245708
O	7.989773	0.991278	-3.500138
O	12.480605	-0.991278	-0.991278
O	9.973537	-0.991278	-3.500138
O	10.235189	1.254430	-1.254430
O	14.464360	0.991278	-0.991278
O	10.235189	3.236997	-3.236997
O	12.218943	3.236997	-1.254430
O	12.218943	1.254430	-3.236997
Si	7.858947	-1.122854	-3.368562
Si	10.104363	1.122854	-3.368562
Si	14.595185	-1.122854	-1.122854
Si	12.349779	1.122854	-1.122854
Dy	0.000000	-4.491422	-4.491422
Dy	2.245416	-6.737130	-6.737130
O	-0.991882	-3.500143	-7.991560
O	3.498950	-5.482700	-5.482700
O	0.991882	-5.482700	-7.991560
O	1.253534	-3.236992	-5.745851
O	5.482705	-3.500143	-5.482700
O	1.253534	-1.254425	-7.728418
O	3.237289	-1.254425	-5.745851
O	3.237289	-3.236992	-7.728418
Si	-1.122708	-5.614276	-7.859984
Si	1.122708	-3.368567	-7.859984
Si	5.613531	-5.614276	-5.614276
Si	3.368124	-3.368567	-5.614276
Dy	4.490827	0.000000	-4.491422
Dy	6.736244	-2.245708	-6.737130
O	3.498945	0.991278	-7.991560
O	7.989778	-0.991278	-5.482700
O	5.482710	-0.991278	-7.991560
O	5.744361	1.254430	-5.745851
O	9.973532	0.991278	-5.482700
O	5.744361	3.236997	-7.728418
O	7.728116	3.236997	-5.745851
O	7.728116	1.254430	-7.728418
Si	3.368119	-1.122854	-7.859984
Si	5.613536	1.122854	-7.859984
Si	10.104358	-1.122854	-5.614276
Si	7.858952	1.122854	-5.614276
