40

Mg	1.929935	1.929935	1.929935
O	0.000000	1.929935	1.929935
O	1.929935	0.000000	1.929935
O	1.929935	1.929935	0.000000
Te	0.000000	0.000000	0.000000
Mg	1.929935	1.929935	5.789806
O	0.000000	1.929935	5.789806
O	1.929935	0.000000	5.789806
O	1.929935	1.929935	3.859871
Te	0.000000	0.000000	3.859871
Mg	1.929935	5.789806	1.929935
O	0.000000	5.789806	1.929935
O	1.929935	3.859871	1.929935
O	1.929935	5.789806	0.000000
Te	0.000000	3.859871	0.000000
Mg	1.929935	5.789806	5.789806
O	0.000000	5.789806	5.789806
O	1.929935	3.859871	5.789806
O	1.929935	5.789806	3.859871
Te	0.000000	3.859871	3.859871
Mg	5.789806	1.929935	1.929935
O	3.859871	1.929935	1.929935
O	5.789806	0.000000	1.929935
O	5.789806	1.929935	0.000000
Te	3.859871	0.000000	0.000000
Mg	5.789806	1.929935	5.789806
O	3.859871	1.929935	5.789806
O	5.789806	0.000000	5.789806
O	5.789806	1.929935	3.859871
Te	3.859871	0.000000	3.859871
Mg	5.789806	5.789806	1.929935
O	3.859871	5.789806	1.929935
O	5.789806	3.859871	1.929935
O	5.789806	5.789806	0.000000
Te	3.859871	3.859871	0.000000
Mg	5.789806	5.789806	5.789806
O	3.859871	5.789806	5.789806
O	5.789806	3.859871	5.789806
O	5.789806	5.789806	3.859871
Te	3.859871	3.859871	3.859871
