40

N	0.000000	0.000000	0.000000
O	0.000000	1.898732	1.898732
O	1.898732	0.000000	1.898732
O	1.898732	1.898732	0.000000
Se	1.898732	1.898732	1.898732
N	0.000000	0.000000	3.797465
O	0.000000	1.898732	5.696197
O	1.898732	0.000000	5.696197
O	1.898732	1.898732	3.797465
Se	1.898732	1.898732	5.696197
N	0.000000	3.797465	0.000000
O	0.000000	5.696197	1.898732
O	1.898732	3.797465	1.898732
O	1.898732	5.696197	0.000000
Se	1.898732	5.696197	1.898732
N	0.000000	3.797465	3.797465
O	0.000000	5.696197	5.696197
O	1.898732	3.797465	5.696197
O	1.898732	5.696197	3.797465
Se	1.898732	5.696197	5.696197
N	3.797465	0.000000	0.000000
O	3.797465	1.898732	1.898732
O	5.696197	0.000000	1.898732
O	5.696197	1.898732	0.000000
Se	5.696197	1.898732	1.898732
N	3.797465	0.000000	3.797465
O	3.797465	1.898732	5.696197
O	5.696197	0.000000	5.696197
O	5.696197	1.898732	3.797465
Se	5.696197	1.898732	5.696197
N	3.797465	3.797465	0.000000
O	3.797465	5.696197	1.898732
O	5.696197	3.797465	1.898732
O	5.696197	5.696197	0.000000
Se	5.696197	5.696197	1.898732
N	3.797465	3.797465	3.797465
O	3.797465	5.696197	5.696197
O	5.696197	3.797465	5.696197
O	5.696197	5.696197	3.797465
Se	5.696197	5.696197	5.696197
