112

O	1.245102	1.233816	-1.233816
O	1.258737	-1.263949	-3.731581
O	-1.258737	1.263949	-3.731581
O	3.748940	-1.263949	-1.263949
O	3.762566	3.761704	-1.233816
O	3.762566	1.233816	-3.761704
O	1.245102	3.761704	-3.761704
O	6.266404	1.263949	-1.263949
Pu	0.000000	0.000000	0.000000
Pu	2.503839	-2.497765	-2.497765
Sr	-1.251914	-1.248882	-3.746647
Sr	6.259582	-1.248882	-1.248882
Sr	1.251914	1.248882	-3.746647
Sr	3.755753	1.248882	-1.248882
O	6.252770	6.229339	-1.233816
O	6.266406	3.731575	-3.731581
O	3.748932	6.259472	-3.731581
O	8.756609	3.731575	-1.263949
O	8.770234	8.757227	-1.233816
O	8.770234	6.229339	-3.761704
O	6.252770	8.757227	-3.761704
O	11.274073	6.259472	-1.263949
Pu	5.007669	4.995523	0.000000
Pu	7.511507	2.497758	-2.497765
Sr	3.755754	3.746641	-3.746647
Sr	11.267250	3.746641	-1.248882
Sr	6.259583	6.244406	-3.746647
Sr	8.763422	6.244406	-1.248882
O	-3.762567	1.233816	-6.229339
O	-3.748932	-1.263949	-8.727104
O	-6.266406	1.263949	-8.727104
O	-1.258728	-1.263949	-6.259472
O	-1.245103	3.761704	-6.229339
O	-1.245103	1.233816	-8.757227
O	-3.762567	3.761704	-8.757227
O	1.258736	1.263949	-6.259472
Pu	-5.007669	0.000000	-4.995523
Pu	-2.503830	-2.497765	-7.493288
Sr	-6.259583	-1.248882	-8.742171
Sr	1.251913	-1.248882	-6.244406
Sr	-3.755754	1.248882	-8.742171
Sr	-1.251916	1.248882	-6.244406
O	1.245102	6.229339	-6.229339
O	1.258737	3.731575	-8.727104
O	-1.258737	6.259472	-8.727104
O	3.748940	3.731575	-6.259472
O	3.762566	8.757227	-6.229339
O	3.762566	6.229339	-8.757227
O	1.245102	8.757227	-8.757227
O	6.266404	6.259472	-6.259472
Pu	0.000000	4.995523	-4.995523
Pu	2.503839	2.497758	-7.493288
Sr	-1.251914	3.746641	-8.742171
Sr	6.259582	3.746641	-6.244406
Sr	1.251914	6.244406	-8.742171
Sr	3.755753	6.244406	-6.244406
O	6.252770	-3.761707	-1.233816
O	6.266406	-6.259472	-3.731581
O	3.748932	-3.731575	-3.731581
O	8.756609	-6.259472	-1.263949
O	8.770234	-1.233820	-1.233816
O	8.770234	-3.761707	-3.761704
O	6.252770	-1.233820	-3.761704
O	11.274073	-3.731575	-1.263949
Pu	5.007669	-4.995523	0.000000
Pu	7.511507	-7.493288	-2.497765
Sr	3.755754	-6.244406	-3.746647
Sr	11.267250	-6.244406	-1.248882
Sr	6.259583	-3.746641	-3.746647
Sr	8.763422	-3.746641	-1.248882
O	11.260439	1.233816	-1.233816
O	11.274074	-1.263949	-3.731581
O	8.756600	1.263949	-3.731581
O	13.764277	-1.263949	-1.263949
O	13.777903	3.761704	-1.233816
O	13.777903	1.233816	-3.761704
O	11.260439	3.761704	-3.761704
O	16.281741	1.263949	-1.263949
Pu	10.015337	0.000000	0.000000
Pu	12.519176	-2.497765	-2.497765
Sr	8.763423	-1.248882	-3.746647
Sr	16.274919	-1.248882	-1.248882
Sr	11.267251	1.248882	-3.746647
Sr	13.771090	1.248882	-1.248882
O	1.245102	-3.761707	-6.229339
O	1.258737	-6.259472	-8.727104
O	-1.258737	-3.731575	-8.727104
O	3.748940	-6.259472	-6.259472
O	3.762566	-1.233820	-6.229339
O	3.762566	-3.761707	-8.757227
O	1.245102	-1.233820	-8.757227
O	6.266404	-3.731575	-6.259472
Pu	0.000000	-4.995523	-4.995523
Pu	2.503839	-7.493288	-7.493288
Sr	-1.251914	-6.244406	-8.742171
Sr	6.259582	-6.244406	-6.244406
Sr	1.251914	-3.746641	-8.742171
Sr	3.755753	-3.746641	-6.244406
O	6.252770	1.233816	-6.229339
O	6.266406	-1.263949	-8.727104
O	3.748932	1.263949	-8.727104
O	8.756609	-1.263949	-6.259472
O	8.770234	3.761704	-6.229339
O	8.770234	1.233816	-8.757227
O	6.252770	3.761704	-8.757227
O	11.274073	1.263949	-6.259472
Pu	5.007669	0.000000	-4.995523
Pu	7.511507	-2.497765	-7.493288
Sr	3.755754	-1.248882	-8.742171
Sr	11.267250	-1.248882	-6.244406
Sr	6.259583	1.248882	-8.742171
Sr	8.763422	1.248882	-6.244406
