112

Al	0.000000	0.000000	0.000000
Al	2.264727	-2.265093	-2.265093
Na	-1.132363	-1.132546	-3.397639
Na	3.397090	1.132546	-1.132546
Na	5.661817	-1.132546	-1.132546
Na	1.132363	1.132546	-3.397639
O	3.285991	-1.243253	-1.243253
O	-1.243463	1.243253	-3.286933
O	1.243463	-1.243253	-3.286933
O	1.021264	1.021840	-1.021840
O	5.772916	1.243253	-1.243253
O	1.021264	3.508345	-3.508345
O	3.508189	3.508345	-1.021840
O	3.508189	1.021840	-3.508345
Al	4.529454	4.530186	0.000000
Al	6.794181	2.265093	-2.265093
Na	3.397090	3.397639	-3.397639
Na	7.926544	5.662732	-1.132546
Na	10.191271	3.397639	-1.132546
Na	5.661817	5.662732	-3.397639
O	7.815445	3.286933	-1.243253
O	3.285991	5.773438	-3.286933
O	5.772916	3.286933	-3.286933
O	5.550718	5.552026	-1.021840
O	10.302370	5.773438	-1.243253
O	5.550718	8.038531	-3.508345
O	8.037643	8.038531	-1.021840
O	8.037643	5.552026	-3.508345
Al	-4.529454	0.000000	-4.530186
Al	-2.264727	-2.265093	-6.795278
Na	-5.661817	-1.132546	-7.927825
Na	-1.132363	1.132546	-5.662732
Na	1.132363	-1.132546	-5.662732
Na	-3.397090	1.132546	-7.927825
O	-1.243463	-1.243253	-5.773438
O	-5.772916	1.243253	-7.817119
O	-3.285991	-1.243253	-7.817119
O	-3.508189	1.021840	-5.552026
O	1.243463	1.243253	-5.773438
O	-3.508189	3.508345	-8.038531
O	-1.021264	3.508345	-5.552026
O	-1.021264	1.021840	-8.038531
Al	0.000000	4.530186	-4.530186
Al	2.264727	2.265093	-6.795278
Na	-1.132363	3.397639	-7.927825
Na	3.397090	5.662732	-5.662732
Na	5.661817	3.397639	-5.662732
Na	1.132363	5.662732	-7.927825
O	3.285991	3.286933	-5.773438
O	-1.243463	5.773438	-7.817119
O	1.243463	3.286933	-7.817119
O	1.021264	5.552026	-5.552026
O	5.772916	5.773438	-5.773438
O	1.021264	8.038531	-8.038531
O	3.508189	8.038531	-5.552026
O	3.508189	5.552026	-8.038531
Al	4.529454	-4.530186	0.000000
Al	6.794181	-6.795278	-2.265093
Na	3.397090	-5.662732	-3.397639
Na	7.926544	-3.397639	-1.132546
Na	10.191271	-5.662732	-1.132546
Na	5.661817	-3.397639	-3.397639
O	7.815445	-5.773438	-1.243253
O	3.285991	-3.286933	-3.286933
O	5.772916	-5.773438	-3.286933
O	5.550718	-3.508345	-1.021840
O	10.302370	-3.286933	-1.243253
O	5.550718	-1.021840	-3.508345
O	8.037643	-1.021840	-1.021840
O	8.037643	-3.508345	-3.508345
Al	9.058907	0.000000	0.000000
Al	11.323634	-2.265093	-2.265093
Na	7.926544	-1.132546	-3.397639
Na	12.455998	1.132546	-1.132546
Na	14.720725	-1.132546	-1.132546
Na	10.191271	1.132546	-3.397639
O	12.344899	-1.243253	-1.243253
O	7.815445	1.243253	-3.286933
O	10.302370	-1.243253	-3.286933
O	10.080172	1.021840	-1.021840
O	14.831824	1.243253	-1.243253
O	10.080172	3.508345	-3.508345
O	12.567097	3.508345	-1.021840
O	12.567097	1.021840	-3.508345
Al	0.000000	-4.530186	-4.530186
Al	2.264727	-6.795278	-6.795278
Na	-1.132363	-5.662732	-7.927825
Na	3.397090	-3.397639	-5.662732
Na	5.661817	-5.662732	-5.662732
Na	1.132363	-3.397639	-7.927825
O	3.285991	-5.773438	-5.773438
O	-1.243463	-3.286933	-7.817119
O	1.243463	-5.773438	-7.817119
O	1.021264	-3.508345	-5.552026
O	5.772916	-3.286933	-5.773438
O	1.021264	-1.021840	-8.038531
O	3.508189	-1.021840	-5.552026
O	3.508189	-3.508345	-8.038531
Al	4.529454	0.000000	-4.530186
Al	6.794181	-2.265093	-6.795278
Na	3.397090	-1.132546	-7.927825
Na	7.926544	1.132546	-5.662732
Na	10.191271	-1.132546	-5.662732
Na	5.661817	1.132546	-7.927825
O	7.815445	-1.243253	-5.773438
O	3.285991	1.243253	-7.817119
O	5.772916	-1.243253	-7.817119
O	5.550718	1.021840	-5.552026
O	10.302370	1.243253	-5.773438
O	5.550718	3.508345	-8.038531
O	8.037643	3.508345	-5.552026
O	8.037643	1.021840	-8.038531
