112

O	3.754554	-1.038407	-1.038407
O	-1.038672	1.038407	-3.755722
O	1.038672	-1.038407	-3.755722
O	1.357941	1.358657	-1.358657
O	5.831898	1.038407	-1.038407
O	1.357941	3.435462	-3.435462
O	3.435285	1.358657	-3.435462
O	3.435285	3.435462	-1.358657
Sn	0.000000	0.000000	0.000000
Sn	2.396613	-2.397065	-2.397065
Tm	-1.198306	-1.198527	-3.595592
Tm	3.594919	1.198527	-1.198527
Tm	1.198306	1.198527	-3.595592
Tm	5.991532	-1.198527	-1.198527
O	8.547775	3.755714	-1.038407
O	3.754550	5.832529	-3.755722
O	5.831894	3.755714	-3.755722
O	6.151163	6.152779	-1.358657
O	10.625119	5.832529	-1.038407
O	6.151163	8.229584	-3.435462
O	8.228506	6.152779	-3.435462
O	8.228506	8.229584	-1.358657
Sn	4.793222	4.794122	0.000000
Sn	7.189835	2.397057	-2.397065
Tm	3.594915	3.595594	-3.595592
Tm	8.388141	5.992649	-1.198527
Tm	5.991528	5.992649	-3.595592
Tm	10.784754	3.595594	-1.198527
O	-1.038668	-1.038407	-5.832529
O	-5.831894	1.038407	-8.549844
O	-3.754550	-1.038407	-8.549844
O	-3.435281	1.358657	-6.152779
O	1.038676	1.038407	-5.832529
O	-3.435281	3.435462	-8.229584
O	-1.357937	1.358657	-8.229584
O	-1.357937	3.435462	-6.152779
Sn	-4.793222	0.000000	-4.794122
Sn	-2.396609	-2.397065	-7.191187
Tm	-5.991528	-1.198527	-8.389714
Tm	-1.198303	1.198527	-5.992649
Tm	-3.594915	1.198527	-8.389714
Tm	1.198310	-1.198527	-5.992649
O	3.754554	3.755714	-5.832529
O	-1.038672	5.832529	-8.549844
O	1.038672	3.755714	-8.549844
O	1.357941	6.152779	-6.152779
O	5.831898	5.832529	-5.832529
O	1.357941	8.229584	-8.229584
O	3.435285	6.152779	-8.229584
O	3.435285	8.229584	-6.152779
Sn	0.000000	4.794122	-4.794122
Sn	2.396613	2.397057	-7.191187
Tm	-1.198306	3.595594	-8.389714
Tm	3.594919	5.992649	-5.992649
Tm	1.198306	5.992649	-8.389714
Tm	5.991532	3.595594	-5.992649
O	8.547775	-5.832529	-1.038407
O	3.754550	-3.755714	-3.755722
O	5.831894	-5.832529	-3.755722
O	6.151163	-3.435465	-1.358657
O	10.625119	-3.755714	-1.038407
O	6.151163	-1.358660	-3.435462
O	8.228506	-3.435465	-3.435462
O	8.228506	-1.358660	-1.358657
Sn	4.793222	-4.794122	0.000000
Sn	7.189835	-7.191187	-2.397065
Tm	3.594915	-5.992649	-3.595592
Tm	8.388141	-3.595594	-1.198527
Tm	5.991528	-3.595594	-3.595592
Tm	10.784754	-5.992649	-1.198527
O	13.340997	-1.038407	-1.038407
O	8.547772	1.038407	-3.755722
O	10.625115	-1.038407	-3.755722
O	10.944384	1.358657	-1.358657
O	15.418341	1.038407	-1.038407
O	10.944384	3.435462	-3.435462
O	13.021728	1.358657	-3.435462
O	13.021728	3.435462	-1.358657
Sn	9.586444	0.000000	0.000000
Sn	11.983056	-2.397065	-2.397065
Tm	8.388137	-1.198527	-3.595592
Tm	13.181363	1.198527	-1.198527
Tm	10.784750	1.198527	-3.595592
Tm	15.577976	-1.198527	-1.198527
O	3.754554	-5.832529	-5.832529
O	-1.038672	-3.755714	-8.549844
O	1.038672	-5.832529	-8.549844
O	1.357941	-3.435465	-6.152779
O	5.831898	-3.755714	-5.832529
O	1.357941	-1.358660	-8.229584
O	3.435285	-3.435465	-8.229584
O	3.435285	-1.358660	-6.152779
Sn	0.000000	-4.794122	-4.794122
Sn	2.396613	-7.191187	-7.191187
Tm	-1.198306	-5.992649	-8.389714
Tm	3.594919	-3.595594	-5.992649
Tm	1.198306	-3.595594	-8.389714
Tm	5.991532	-5.992649	-5.992649
O	8.547775	-1.038407	-5.832529
O	3.754550	1.038407	-8.549844
O	5.831894	-1.038407	-8.549844
O	6.151163	1.358657	-6.152779
O	10.625119	1.038407	-5.832529
O	6.151163	3.435462	-8.229584
O	8.228506	1.358657	-8.229584
O	8.228506	3.435462	-6.152779
Sn	4.793222	0.000000	-4.794122
Sn	7.189835	-2.397065	-7.191187
Tm	3.594915	-1.198527	-8.389714
Tm	8.388141	1.198527	-5.992649
Tm	5.991528	1.198527	-8.389714
Tm	10.784754	-1.198527	-5.992649
