40

Ac	0.000000	0.000000	0.000000
Eu	2.186649	2.186649	2.186649
O	2.186649	2.186649	0.000000
O	2.186649	0.000000	2.186649
O	0.000000	2.186649	2.186649
Ac	0.000000	0.000000	4.373299
Eu	2.186649	2.186649	6.559948
O	2.186649	2.186649	4.373299
O	2.186649	0.000000	6.559948
O	0.000000	2.186649	6.559948
Ac	0.000000	4.373299	0.000000
Eu	2.186649	6.559948	2.186649
O	2.186649	6.559948	0.000000
O	2.186649	4.373299	2.186649
O	0.000000	6.559948	2.186649
Ac	0.000000	4.373299	4.373299
Eu	2.186649	6.559948	6.559948
O	2.186649	6.559948	4.373299
O	2.186649	4.373299	6.559948
O	0.000000	6.559948	6.559948
Ac	4.373299	0.000000	0.000000
Eu	6.559948	2.186649	2.186649
O	6.559948	2.186649	0.000000
O	6.559948	0.000000	2.186649
O	4.373299	2.186649	2.186649
Ac	4.373299	0.000000	4.373299
Eu	6.559948	2.186649	6.559948
O	6.559948	2.186649	4.373299
O	6.559948	0.000000	6.559948
O	4.373299	2.186649	6.559948
Ac	4.373299	4.373299	0.000000
Eu	6.559948	6.559948	2.186649
O	6.559948	6.559948	0.000000
O	6.559948	4.373299	2.186649
O	4.373299	6.559948	2.186649
Ac	4.373299	4.373299	4.373299
Eu	6.559948	6.559948	6.559948
O	6.559948	6.559948	4.373299
O	6.559948	4.373299	6.559948
O	4.373299	6.559948	6.559948
