40

Cd	0.000000	0.000000	0.000000
F	1.918766	1.918766	1.918766
O	0.000000	1.918766	1.918766
O	1.918766	0.000000	1.918766
O	1.918766	1.918766	0.000000
Cd	0.000000	0.000000	3.837532
F	1.918766	1.918766	5.756297
O	0.000000	1.918766	5.756297
O	1.918766	0.000000	5.756297
O	1.918766	1.918766	3.837532
Cd	0.000000	3.837532	0.000000
F	1.918766	5.756297	1.918766
O	0.000000	5.756297	1.918766
O	1.918766	3.837532	1.918766
O	1.918766	5.756297	0.000000
Cd	0.000000	3.837532	3.837532
F	1.918766	5.756297	5.756297
O	0.000000	5.756297	5.756297
O	1.918766	3.837532	5.756297
O	1.918766	5.756297	3.837532
Cd	3.837532	0.000000	0.000000
F	5.756297	1.918766	1.918766
O	3.837532	1.918766	1.918766
O	5.756297	0.000000	1.918766
O	5.756297	1.918766	0.000000
Cd	3.837532	0.000000	3.837532
F	5.756297	1.918766	5.756297
O	3.837532	1.918766	5.756297
O	5.756297	0.000000	5.756297
O	5.756297	1.918766	3.837532
Cd	3.837532	3.837532	0.000000
F	5.756297	5.756297	1.918766
O	3.837532	5.756297	1.918766
O	5.756297	3.837532	1.918766
O	5.756297	5.756297	0.000000
Cd	3.837532	3.837532	3.837532
F	5.756297	5.756297	5.756297
O	3.837532	5.756297	5.756297
O	5.756297	3.837532	5.756297
O	5.756297	5.756297	3.837532
