40

Cd	0.000000	0.000000	0.000000
F	1.906016	1.906016	1.906016
O	0.000000	1.906016	1.906016
O	1.906016	0.000000	1.906016
O	1.906016	1.906016	0.000000
Cd	0.000000	0.000000	3.812033
F	1.906016	1.906016	5.718049
O	0.000000	1.906016	5.718049
O	1.906016	0.000000	5.718049
O	1.906016	1.906016	3.812033
Cd	0.000000	3.812033	0.000000
F	1.906016	5.718049	1.906016
O	0.000000	5.718049	1.906016
O	1.906016	3.812033	1.906016
O	1.906016	5.718049	0.000000
Cd	0.000000	3.812033	3.812033
F	1.906016	5.718049	5.718049
O	0.000000	5.718049	5.718049
O	1.906016	3.812033	5.718049
O	1.906016	5.718049	3.812033
Cd	3.812033	0.000000	0.000000
F	5.718049	1.906016	1.906016
O	3.812033	1.906016	1.906016
O	5.718049	0.000000	1.906016
O	5.718049	1.906016	0.000000
Cd	3.812033	0.000000	3.812033
F	5.718049	1.906016	5.718049
O	3.812033	1.906016	5.718049
O	5.718049	0.000000	5.718049
O	5.718049	1.906016	3.812033
Cd	3.812033	3.812033	0.000000
F	5.718049	5.718049	1.906016
O	3.812033	5.718049	1.906016
O	5.718049	3.812033	1.906016
O	5.718049	5.718049	0.000000
Cd	3.812033	3.812033	3.812033
F	5.718049	5.718049	5.718049
O	3.812033	5.718049	5.718049
O	5.718049	3.812033	5.718049
O	5.718049	5.718049	3.812033
