112

Li	0.000000	0.000000	0.000000
Li	2.083142	-2.084216	-2.084216
O	1.030968	1.031957	-1.031957
O	3.114100	-1.052259	-1.052259
O	-1.052173	1.052259	-3.116183
O	1.052173	-1.052259	-3.116183
O	1.030968	3.136475	-3.136475
O	3.135315	3.136475	-1.031957
O	3.135315	1.031957	-3.136475
O	5.218457	1.052259	-1.052259
W	-1.041566	-1.042108	-3.126324
W	1.041566	1.042108	-3.126324
W	3.124708	1.042108	-1.042108
W	5.207849	-1.042108	-1.042108
Li	4.166281	4.168435	0.000000
Li	6.249423	2.084220	-2.084216
O	5.197250	5.200392	-1.031957
O	7.280382	3.116177	-1.052259
O	3.114108	5.220694	-3.116183
O	5.218455	3.116177	-3.116183
O	5.197250	7.304910	-3.136475
O	7.301596	7.304910	-1.031957
O	7.301596	5.200392	-3.136475
O	9.384738	5.220694	-1.052259
W	3.124716	3.126327	-3.126324
W	5.207847	5.210543	-3.126324
W	7.290989	5.210543	-1.042108
W	9.374131	3.126327	-1.042108
Li	-4.166281	0.000000	-4.168435
Li	-2.083140	-2.084216	-6.252651
O	-3.135313	1.031957	-5.200392
O	-1.052181	-1.052259	-5.220694
O	-5.218455	1.052259	-7.284618
O	-3.114108	-1.052259	-7.284618
O	-3.135313	3.136475	-7.304910
O	-1.030967	3.136475	-5.200392
O	-1.030967	1.031957	-7.304910
O	1.052175	1.052259	-5.220694
W	-5.207847	-1.042108	-7.294759
W	-3.124716	1.042108	-7.294759
W	-1.041574	1.042108	-5.210543
W	1.041568	-1.042108	-5.210543
Li	0.000000	4.168435	-4.168435
Li	2.083142	2.084220	-6.252651
O	1.030968	5.200392	-5.200392
O	3.114100	3.116177	-5.220694
O	-1.052173	5.220694	-7.284618
O	1.052173	3.116177	-7.284618
O	1.030968	7.304910	-7.304910
O	3.135315	7.304910	-5.200392
O	3.135315	5.200392	-7.304910
O	5.218457	5.220694	-5.220694
W	-1.041566	3.126327	-7.294759
W	1.041566	5.210543	-7.294759
W	3.124708	5.210543	-5.210543
W	5.207849	3.126327	-5.210543
Li	4.166281	-4.168435	0.000000
Li	6.249423	-6.252651	-2.084216
O	5.197250	-3.136478	-1.031957
O	7.280382	-5.220694	-1.052259
O	3.114108	-3.116177	-3.116183
O	5.218455	-5.220694	-3.116183
O	5.197250	-1.031961	-3.136475
O	7.301596	-1.031961	-1.031957
O	7.301596	-3.136478	-3.136475
O	9.384738	-3.116177	-1.052259
W	3.124716	-5.210543	-3.126324
W	5.207847	-3.126327	-3.126324
W	7.290989	-3.126327	-1.042108
W	9.374131	-5.210543	-1.042108
Li	8.332563	0.000000	0.000000
Li	10.415705	-2.084216	-2.084216
O	9.363531	1.031957	-1.031957
O	11.446663	-1.052259	-1.052259
O	7.280390	1.052259	-3.116183
O	9.384736	-1.052259	-3.116183
O	9.363531	3.136475	-3.136475
O	11.467878	3.136475	-1.031957
O	11.467878	1.031957	-3.136475
O	13.551020	1.052259	-1.052259
W	7.290997	-1.042108	-3.126324
W	9.374129	1.042108	-3.126324
W	11.457271	1.042108	-1.042108
W	13.540412	-1.042108	-1.042108
Li	0.000000	-4.168435	-4.168435
Li	2.083142	-6.252651	-6.252651
O	1.030968	-3.136478	-5.200392
O	3.114100	-5.220694	-5.220694
O	-1.052173	-3.116177	-7.284618
O	1.052173	-5.220694	-7.284618
O	1.030968	-1.031961	-7.304910
O	3.135315	-1.031961	-5.200392
O	3.135315	-3.136478	-7.304910
O	5.218457	-3.116177	-5.220694
W	-1.041566	-5.210543	-7.294759
W	1.041566	-3.126327	-7.294759
W	3.124708	-3.126327	-5.210543
W	5.207849	-5.210543	-5.210543
Li	4.166281	0.000000	-4.168435
Li	6.249423	-2.084216	-6.252651
O	5.197250	1.031957	-5.200392
O	7.280382	-1.052259	-5.220694
O	3.114108	1.052259	-7.284618
O	5.218455	-1.052259	-7.284618
O	5.197250	3.136475	-7.304910
O	7.301596	3.136475	-5.200392
O	7.301596	1.031957	-7.304910
O	9.384738	1.052259	-5.220694
W	3.124716	-1.042108	-7.294759
W	5.207847	1.042108	-7.294759
W	7.290989	1.042108	-5.210543
W	9.374131	-1.042108	-5.210543
