40

F	1.829431	1.829431	1.829431
O	0.000000	1.829431	1.829431
O	1.829431	0.000000	1.829431
O	1.829431	1.829431	0.000000
Ru	0.000000	0.000000	0.000000
F	1.829431	1.829431	5.488294
O	0.000000	1.829431	5.488294
O	1.829431	0.000000	5.488294
O	1.829431	1.829431	3.658863
Ru	0.000000	0.000000	3.658863
F	1.829431	5.488294	1.829431
O	0.000000	5.488294	1.829431
O	1.829431	3.658863	1.829431
O	1.829431	5.488294	0.000000
Ru	0.000000	3.658863	0.000000
F	1.829431	5.488294	5.488294
O	0.000000	5.488294	5.488294
O	1.829431	3.658863	5.488294
O	1.829431	5.488294	3.658863
Ru	0.000000	3.658863	3.658863
F	5.488294	1.829431	1.829431
O	3.658863	1.829431	1.829431
O	5.488294	0.000000	1.829431
O	5.488294	1.829431	0.000000
Ru	3.658863	0.000000	0.000000
F	5.488294	1.829431	5.488294
O	3.658863	1.829431	5.488294
O	5.488294	0.000000	5.488294
O	5.488294	1.829431	3.658863
Ru	3.658863	0.000000	3.658863
F	5.488294	5.488294	1.829431
O	3.658863	5.488294	1.829431
O	5.488294	3.658863	1.829431
O	5.488294	5.488294	0.000000
Ru	3.658863	3.658863	0.000000
F	5.488294	5.488294	5.488294
O	3.658863	5.488294	5.488294
O	5.488294	3.658863	5.488294
O	5.488294	5.488294	3.658863
Ru	3.658863	3.658863	3.658863
