112

Be	0.000000	0.000000	0.000000
Be	2.241726	-2.241706	-2.241706
Dy	-1.120863	-1.120853	-3.362558
Dy	3.362590	1.120853	-1.120853
Dy	5.604316	-1.120853	-1.120853
Dy	1.120863	1.120853	-3.362558
O	3.317976	-1.165215	-1.165215
O	-1.165477	1.165215	-3.318196
O	1.165477	-1.165215	-3.318196
O	1.076250	1.076491	-1.076491
O	5.648930	1.165215	-1.165215
O	1.076250	3.406920	-3.406920
O	3.407203	3.406920	-1.076491
O	3.407203	1.076491	-3.406920
Be	4.483453	4.483411	0.000000
Be	6.725179	2.241706	-2.241706
Dy	3.362590	3.362558	-3.362558
Dy	7.846043	5.604264	-1.120853
Dy	10.087769	3.362558	-1.120853
Dy	5.604316	5.604264	-3.362558
O	7.801429	3.318196	-1.165215
O	3.317976	5.648626	-3.318196
O	5.648930	3.318196	-3.318196
O	5.559703	5.559902	-1.076491
O	10.132383	5.648626	-1.165215
O	5.559703	7.890331	-3.406920
O	7.890656	7.890331	-1.076491
O	7.890656	5.559902	-3.406920
Be	-4.483453	0.000000	-4.483411
Be	-2.241726	-2.241706	-6.725117
Dy	-5.604316	-1.120853	-7.845969
Dy	-1.120863	1.120853	-5.604264
Dy	1.120863	-1.120853	-5.604264
Dy	-3.362590	1.120853	-7.845969
O	-1.165477	-1.165215	-5.648626
O	-5.648930	1.165215	-7.801607
O	-3.317976	-1.165215	-7.801607
O	-3.407203	1.076491	-5.559902
O	1.165477	1.165215	-5.648626
O	-3.407203	3.406920	-7.890331
O	-1.076250	3.406920	-5.559902
O	-1.076250	1.076491	-7.890331
Be	0.000000	4.483411	-4.483411
Be	2.241726	2.241706	-6.725117
Dy	-1.120863	3.362558	-7.845969
Dy	3.362590	5.604264	-5.604264
Dy	5.604316	3.362558	-5.604264
Dy	1.120863	5.604264	-7.845969
O	3.317976	3.318196	-5.648626
O	-1.165477	5.648626	-7.801607
O	1.165477	3.318196	-7.801607
O	1.076250	5.559902	-5.559902
O	5.648930	5.648626	-5.648626
O	1.076250	7.890331	-7.890331
O	3.407203	7.890331	-5.559902
O	3.407203	5.559902	-7.890331
Be	4.483453	-4.483411	0.000000
Be	6.725179	-6.725117	-2.241706
Dy	3.362590	-5.604264	-3.362558
Dy	7.846043	-3.362558	-1.120853
Dy	10.087769	-5.604264	-1.120853
Dy	5.604316	-3.362558	-3.362558
O	7.801429	-5.648626	-1.165215
O	3.317976	-3.318196	-3.318196
O	5.648930	-5.648626	-3.318196
O	5.559703	-3.406920	-1.076491
O	10.132383	-3.318196	-1.165215
O	5.559703	-1.076491	-3.406920
O	7.890656	-1.076491	-1.076491
O	7.890656	-3.406920	-3.406920
Be	8.966906	0.000000	0.000000
Be	11.208632	-2.241706	-2.241706
Dy	7.846043	-1.120853	-3.362558
Dy	12.329496	1.120853	-1.120853
Dy	14.571222	-1.120853	-1.120853
Dy	10.087769	1.120853	-3.362558
O	12.284882	-1.165215	-1.165215
O	7.801429	1.165215	-3.318196
O	10.132383	-1.165215	-3.318196
O	10.043155	1.076491	-1.076491
O	14.615836	1.165215	-1.165215
O	10.043155	3.406920	-3.406920
O	12.374109	3.406920	-1.076491
O	12.374109	1.076491	-3.406920
Be	0.000000	-4.483411	-4.483411
Be	2.241726	-6.725117	-6.725117
Dy	-1.120863	-5.604264	-7.845969
Dy	3.362590	-3.362558	-5.604264
Dy	5.604316	-5.604264	-5.604264
Dy	1.120863	-3.362558	-7.845969
O	3.317976	-5.648626	-5.648626
O	-1.165477	-3.318196	-7.801607
O	1.165477	-5.648626	-7.801607
O	1.076250	-3.406920	-5.559902
O	5.648930	-3.318196	-5.648626
O	1.076250	-1.076491	-7.890331
O	3.407203	-1.076491	-5.559902
O	3.407203	-3.406920	-7.890331
Be	4.483453	0.000000	-4.483411
Be	6.725179	-2.241706	-6.725117
Dy	3.362590	-1.120853	-7.845969
Dy	7.846043	1.120853	-5.604264
Dy	10.087769	-1.120853	-5.604264
Dy	5.604316	1.120853	-7.845969
O	7.801429	-1.165215	-5.648626
O	3.317976	1.165215	-7.801607
O	5.648930	-1.165215	-7.801607
O	5.559703	1.076491	-5.559902
O	10.132383	1.165215	-5.648626
O	5.559703	3.406920	-7.890331
O	7.890656	3.406920	-5.559902
O	7.890656	1.076491	-7.890331
