112

Be	0.000000	0.000000	0.000000
Be	2.223979	-2.224145	-2.224145
Dy	-1.111985	-1.112067	-3.336212
Dy	3.335964	1.112067	-1.112067
Dy	1.111985	1.112067	-3.336212
Dy	5.559944	-1.112067	-1.112067
O	1.061594	1.061794	-1.061794
O	-1.162386	1.162340	-3.285939
O	3.285573	-1.162340	-1.162340
O	1.162386	-1.162340	-3.285939
O	1.061594	3.386485	-3.386485
O	3.386356	1.061794	-3.386485
O	3.386356	3.386485	-1.061794
O	5.610335	1.162340	-1.162340
Be	4.447952	4.448281	0.000000
Be	6.671931	2.224136	-2.224145
Dy	3.335967	3.336213	-3.336212
Dy	7.783916	5.560348	-1.112067
Dy	5.559937	5.560348	-3.336212
Dy	10.007896	3.336213	-1.112067
O	5.509546	5.510075	-1.061794
O	3.285566	5.610621	-3.285939
O	7.733525	3.285940	-1.162340
O	5.610338	3.285940	-3.285939
O	5.509546	7.834766	-3.386485
O	7.834308	5.510075	-3.386485
O	7.834308	7.834766	-1.061794
O	10.058287	5.610621	-1.162340
Be	-4.447952	0.000000	-4.448281
Be	-2.223973	-2.224145	-6.672425
Dy	-5.559937	-1.112067	-7.784493
Dy	-1.111988	1.112067	-5.560348
Dy	-3.335967	1.112067	-7.784493
Dy	1.111992	-1.112067	-5.560348
O	-3.386358	1.061794	-5.510075
O	-5.610338	1.162340	-7.734220
O	-1.162379	-1.162340	-5.610621
O	-3.285566	-1.162340	-7.734220
O	-3.386358	3.386485	-7.834766
O	-1.061596	1.061794	-7.834766
O	-1.061596	3.386485	-5.510075
O	1.162383	1.162340	-5.610621
Be	0.000000	4.448281	-4.448281
Be	2.223979	2.224136	-6.672425
Dy	-1.111985	3.336213	-7.784493
Dy	3.335964	5.560348	-5.560348
Dy	1.111985	5.560348	-7.784493
Dy	5.559944	3.336213	-5.560348
O	1.061594	5.510075	-5.510075
O	-1.162386	5.610621	-7.734220
O	3.285573	3.285940	-5.610621
O	1.162386	3.285940	-7.734220
O	1.061594	7.834766	-7.834766
O	3.386356	5.510075	-7.834766
O	3.386356	7.834766	-5.510075
O	5.610335	5.610621	-5.610621
Be	4.447952	-4.448281	0.000000
Be	6.671931	-6.672425	-2.224145
Dy	3.335967	-5.560348	-3.336212
Dy	7.783916	-3.336213	-1.112067
Dy	5.559937	-3.336213	-3.336212
Dy	10.007896	-5.560348	-1.112067
O	5.509546	-3.386486	-1.061794
O	3.285566	-3.285940	-3.285939
O	7.733525	-5.610621	-1.162340
O	5.610338	-5.610621	-3.285939
O	5.509546	-1.061795	-3.386485
O	7.834308	-3.386486	-3.386485
O	7.834308	-1.061795	-1.061794
O	10.058287	-3.285940	-1.162340
Be	8.895904	0.000000	0.000000
Be	11.119883	-2.224145	-2.224145
Dy	7.783919	-1.112067	-3.336212
Dy	12.231868	1.112067	-1.112067
Dy	10.007889	1.112067	-3.336212
Dy	14.455848	-1.112067	-1.112067
O	9.957498	1.061794	-1.061794
O	7.733518	1.162340	-3.285939
O	12.181477	-1.162340	-1.162340
O	10.058290	-1.162340	-3.285939
O	9.957498	3.386485	-3.386485
O	12.282260	1.061794	-3.386485
O	12.282260	3.386485	-1.061794
O	14.506239	1.162340	-1.162340
Be	0.000000	-4.448281	-4.448281
Be	2.223979	-6.672425	-6.672425
Dy	-1.111985	-5.560348	-7.784493
Dy	3.335964	-3.336213	-5.560348
Dy	1.111985	-3.336213	-7.784493
Dy	5.559944	-5.560348	-5.560348
O	1.061594	-3.386486	-5.510075
O	-1.162386	-3.285940	-7.734220
O	3.285573	-5.610621	-5.610621
O	1.162386	-5.610621	-7.734220
O	1.061594	-1.061795	-7.834766
O	3.386356	-3.386486	-7.834766
O	3.386356	-1.061795	-5.510075
O	5.610335	-3.285940	-5.610621
Be	4.447952	0.000000	-4.448281
Be	6.671931	-2.224145	-6.672425
Dy	3.335967	-1.112067	-7.784493
Dy	7.783916	1.112067	-5.560348
Dy	5.559937	1.112067	-7.784493
Dy	10.007896	-1.112067	-5.560348
O	5.509546	1.061794	-5.510075
O	3.285566	1.162340	-7.734220
O	7.733525	-1.162340	-5.610621
O	5.610338	-1.162340	-7.734220
O	5.509546	3.386485	-7.834766
O	7.834308	1.061794	-7.834766
O	7.834308	3.386485	-5.510075
O	10.058287	1.162340	-5.610621
