40

Cd	2.054030	2.054030	2.054030
O	2.054030	2.054030	0.000000
O	0.000000	2.054030	2.054030
O	2.054030	0.000000	2.054030
Pm	0.000000	0.000000	0.000000
Cd	2.054030	2.054030	6.162092
O	2.054030	2.054030	4.108062
O	0.000000	2.054030	6.162092
O	2.054030	0.000000	6.162092
Pm	0.000000	0.000000	4.108062
Cd	2.054030	6.162092	2.054030
O	2.054030	6.162092	0.000000
O	0.000000	6.162092	2.054030
O	2.054030	4.108062	2.054030
Pm	0.000000	4.108062	0.000000
Cd	2.054030	6.162092	6.162092
O	2.054030	6.162092	4.108062
O	0.000000	6.162092	6.162092
O	2.054030	4.108062	6.162092
Pm	0.000000	4.108062	4.108062
Cd	6.162092	2.054030	2.054030
O	6.162092	2.054030	0.000000
O	4.108062	2.054030	2.054030
O	6.162092	0.000000	2.054030
Pm	4.108062	0.000000	0.000000
Cd	6.162092	2.054030	6.162092
O	6.162092	2.054030	4.108062
O	4.108062	2.054030	6.162092
O	6.162092	0.000000	6.162092
Pm	4.108062	0.000000	4.108062
Cd	6.162092	6.162092	2.054030
O	6.162092	6.162092	0.000000
O	4.108062	6.162092	2.054030
O	6.162092	4.108062	2.054030
Pm	4.108062	4.108062	0.000000
Cd	6.162092	6.162092	6.162092
O	6.162092	6.162092	4.108062
O	4.108062	6.162092	6.162092
O	6.162092	4.108062	6.162092
Pm	4.108062	4.108062	4.108062
