40

Co	0.000000	0.000000	0.000000
Mg	1.939123	1.939123	1.939123
O	0.000000	1.939123	1.939123
O	1.939123	0.000000	1.939123
O	1.939123	1.939123	0.000000
Co	0.000000	0.000000	3.878247
Mg	1.939123	1.939123	5.817370
O	0.000000	1.939123	5.817370
O	1.939123	0.000000	5.817370
O	1.939123	1.939123	3.878247
Co	0.000000	3.878247	0.000000
Mg	1.939123	5.817370	1.939123
O	0.000000	5.817370	1.939123
O	1.939123	3.878247	1.939123
O	1.939123	5.817370	0.000000
Co	0.000000	3.878247	3.878247
Mg	1.939123	5.817370	5.817370
O	0.000000	5.817370	5.817370
O	1.939123	3.878247	5.817370
O	1.939123	5.817370	3.878247
Co	3.878247	0.000000	0.000000
Mg	5.817370	1.939123	1.939123
O	3.878247	1.939123	1.939123
O	5.817370	0.000000	1.939123
O	5.817370	1.939123	0.000000
Co	3.878247	0.000000	3.878247
Mg	5.817370	1.939123	5.817370
O	3.878247	1.939123	5.817370
O	5.817370	0.000000	5.817370
O	5.817370	1.939123	3.878247
Co	3.878247	3.878247	0.000000
Mg	5.817370	5.817370	1.939123
O	3.878247	5.817370	1.939123
O	5.817370	3.878247	1.939123
O	5.817370	5.817370	0.000000
Co	3.878247	3.878247	3.878247
Mg	5.817370	5.817370	5.817370
O	3.878247	5.817370	5.817370
O	5.817370	3.878247	5.817370
O	5.817370	5.817370	3.878247
