40

O	2.187399	2.187399	0.000000
O	0.000000	2.187399	2.187399
O	2.187399	0.000000	2.187399
Pb	0.000000	0.000000	0.000000
U	2.187399	2.187399	2.187399
O	2.187399	2.187399	4.374789
O	0.000000	2.187399	6.562188
O	2.187399	0.000000	6.562188
Pb	0.000000	0.000000	4.374789
U	2.187399	2.187399	6.562188
O	2.187399	6.562188	0.000000
O	0.000000	6.562188	2.187399
O	2.187399	4.374789	2.187399
Pb	0.000000	4.374789	0.000000
U	2.187399	6.562188	2.187399
O	2.187399	6.562188	4.374789
O	0.000000	6.562188	6.562188
O	2.187399	4.374789	6.562188
Pb	0.000000	4.374789	4.374789
U	2.187399	6.562188	6.562188
O	6.562188	2.187399	0.000000
O	4.374789	2.187399	2.187399
O	6.562188	0.000000	2.187399
Pb	4.374789	0.000000	0.000000
U	6.562188	2.187399	2.187399
O	6.562188	2.187399	4.374789
O	4.374789	2.187399	6.562188
O	6.562188	0.000000	6.562188
Pb	4.374789	0.000000	4.374789
U	6.562188	2.187399	6.562188
O	6.562188	6.562188	0.000000
O	4.374789	6.562188	2.187399
O	6.562188	4.374789	2.187399
Pb	4.374789	4.374789	0.000000
U	6.562188	6.562188	2.187399
O	6.562188	6.562188	4.374789
O	4.374789	6.562188	6.562188
O	6.562188	4.374789	6.562188
Pb	4.374789	4.374789	4.374789
U	6.562188	6.562188	6.562188
