40

Li	1.718470	1.718470	1.718470
Nb	0.000000	0.000000	0.000000
O	1.718470	1.718470	0.000000
O	0.000000	1.718470	1.718470
O	1.718470	0.000000	1.718470
Li	1.718470	1.718470	5.155417
Nb	0.000000	0.000000	3.436947
O	1.718470	1.718470	3.436947
O	0.000000	1.718470	5.155417
O	1.718470	0.000000	5.155417
Li	1.718470	5.155417	1.718470
Nb	0.000000	3.436947	0.000000
O	1.718470	5.155417	0.000000
O	0.000000	5.155417	1.718470
O	1.718470	3.436947	1.718470
Li	1.718470	5.155417	5.155417
Nb	0.000000	3.436947	3.436947
O	1.718470	5.155417	3.436947
O	0.000000	5.155417	5.155417
O	1.718470	3.436947	5.155417
Li	5.155417	1.718470	1.718470
Nb	3.436947	0.000000	0.000000
O	5.155417	1.718470	0.000000
O	3.436947	1.718470	1.718470
O	5.155417	0.000000	1.718470
Li	5.155417	1.718470	5.155417
Nb	3.436947	0.000000	3.436947
O	5.155417	1.718470	3.436947
O	3.436947	1.718470	5.155417
O	5.155417	0.000000	5.155417
Li	5.155417	5.155417	1.718470
Nb	3.436947	3.436947	0.000000
O	5.155417	5.155417	0.000000
O	3.436947	5.155417	1.718470
O	5.155417	3.436947	1.718470
Li	5.155417	5.155417	5.155417
Nb	3.436947	3.436947	3.436947
O	5.155417	5.155417	3.436947
O	3.436947	5.155417	5.155417
O	5.155417	3.436947	5.155417
