40

O	1.893630	1.893630	0.000000
O	0.000000	1.893630	1.893630
O	1.893630	0.000000	1.893630
Sc_sv	0.000000	0.000000	0.000000
V	1.893630	1.893630	1.893630
O	1.893630	1.893630	3.787251
O	0.000000	1.893630	5.680881
O	1.893630	0.000000	5.680881
Sc_sv	0.000000	0.000000	3.787251
V	1.893630	1.893630	5.680881
O	1.893630	5.680881	0.000000
O	0.000000	5.680881	1.893630
O	1.893630	3.787251	1.893630
Sc_sv	0.000000	3.787251	0.000000
V	1.893630	5.680881	1.893630
O	1.893630	5.680881	3.787251
O	0.000000	5.680881	5.680881
O	1.893630	3.787251	5.680881
Sc_sv	0.000000	3.787251	3.787251
V	1.893630	5.680881	5.680881
O	5.680881	1.893630	0.000000
O	3.787251	1.893630	1.893630
O	5.680881	0.000000	1.893630
Sc_sv	3.787251	0.000000	0.000000
V	5.680881	1.893630	1.893630
O	5.680881	1.893630	3.787251
O	3.787251	1.893630	5.680881
O	5.680881	0.000000	5.680881
Sc_sv	3.787251	0.000000	3.787251
V	5.680881	1.893630	5.680881
O	5.680881	5.680881	0.000000
O	3.787251	5.680881	1.893630
O	5.680881	3.787251	1.893630
Sc_sv	3.787251	3.787251	0.000000
V	5.680881	5.680881	1.893630
O	5.680881	5.680881	3.787251
O	3.787251	5.680881	5.680881
O	5.680881	3.787251	5.680881
Sc_sv	3.787251	3.787251	3.787251
V	5.680881	5.680881	5.680881
