40

Li	0.000000	0.000000	0.000000
O	1.957250	1.957250	0.000000
O	0.000000	1.957250	1.957250
O	1.957250	0.000000	1.957250
Pt	1.957250	1.957250	1.957250
Li	0.000000	0.000000	3.914508
O	1.957250	1.957250	3.914508
O	0.000000	1.957250	5.871758
O	1.957250	0.000000	5.871758
Pt	1.957250	1.957250	5.871758
Li	0.000000	3.914508	0.000000
O	1.957250	5.871758	0.000000
O	0.000000	5.871758	1.957250
O	1.957250	3.914508	1.957250
Pt	1.957250	5.871758	1.957250
Li	0.000000	3.914508	3.914508
O	1.957250	5.871758	3.914508
O	0.000000	5.871758	5.871758
O	1.957250	3.914508	5.871758
Pt	1.957250	5.871758	5.871758
Li	3.914508	0.000000	0.000000
O	5.871758	1.957250	0.000000
O	3.914508	1.957250	1.957250
O	5.871758	0.000000	1.957250
Pt	5.871758	1.957250	1.957250
Li	3.914508	0.000000	3.914508
O	5.871758	1.957250	3.914508
O	3.914508	1.957250	5.871758
O	5.871758	0.000000	5.871758
Pt	5.871758	1.957250	5.871758
Li	3.914508	3.914508	0.000000
O	5.871758	5.871758	0.000000
O	3.914508	5.871758	1.957250
O	5.871758	3.914508	1.957250
Pt	5.871758	5.871758	1.957250
Li	3.914508	3.914508	3.914508
O	5.871758	5.871758	3.914508
O	3.914508	5.871758	5.871758
O	5.871758	3.914508	5.871758
Pt	5.871758	5.871758	5.871758
