40

Li	1.788183	1.788183	1.788183
O	1.788183	1.788183	0.000000
O	1.788183	0.000000	1.788183
O	0.000000	1.788183	1.788183
Pt	0.000000	0.000000	0.000000
Li	1.788183	1.788183	5.364549
O	1.788183	1.788183	3.576366
O	1.788183	0.000000	5.364549
O	0.000000	1.788183	5.364549
Pt	0.000000	0.000000	3.576366
Li	1.788183	5.364549	1.788183
O	1.788183	5.364549	0.000000
O	1.788183	3.576366	1.788183
O	0.000000	5.364549	1.788183
Pt	0.000000	3.576366	0.000000
Li	1.788183	5.364549	5.364549
O	1.788183	5.364549	3.576366
O	1.788183	3.576366	5.364549
O	0.000000	5.364549	5.364549
Pt	0.000000	3.576366	3.576366
Li	5.364549	1.788183	1.788183
O	5.364549	1.788183	0.000000
O	5.364549	0.000000	1.788183
O	3.576366	1.788183	1.788183
Pt	3.576366	0.000000	0.000000
Li	5.364549	1.788183	5.364549
O	5.364549	1.788183	3.576366
O	5.364549	0.000000	5.364549
O	3.576366	1.788183	5.364549
Pt	3.576366	0.000000	3.576366
Li	5.364549	5.364549	1.788183
O	5.364549	5.364549	0.000000
O	5.364549	3.576366	1.788183
O	3.576366	5.364549	1.788183
Pt	3.576366	3.576366	0.000000
Li	5.364549	5.364549	5.364549
O	5.364549	5.364549	3.576366
O	5.364549	3.576366	5.364549
O	3.576366	5.364549	5.364549
Pt	3.576366	3.576366	3.576366
