112

Ni	0.000000	0.000000	0.000000
Ni	2.537392	-2.535766	-2.535766
O	1.004291	0.999160	-0.999160
O	1.533101	-1.536596	-3.534927
O	-1.533101	1.536596	-3.534927
O	3.541674	-1.536596	-1.536596
O	4.070483	4.072363	-0.999160
O	4.070483	0.999160	-4.072363
O	1.004291	4.072363	-4.072363
O	6.607876	1.536596	-1.536596
Rb	-1.268696	-1.267883	-3.803650
Rb	3.806079	1.267883	-1.267883
Rb	6.343471	-1.267883	-1.267883
Rb	1.268696	1.267883	-3.803650
Ni	5.074776	5.071528	0.000000
Ni	7.612168	2.535762	-2.535766
O	6.079068	6.070688	-0.999160
O	6.607877	3.534932	-3.534927
O	3.541675	6.608124	-3.534927
O	8.616450	3.534932	-1.536596
O	9.145260	9.143891	-0.999160
O	9.145260	6.070688	-4.072363
O	6.079068	9.143891	-4.072363
O	11.682652	6.608124	-1.536596
Rb	3.806080	3.803645	-3.803650
Rb	8.880855	6.339411	-1.267883
Rb	11.418247	3.803645	-1.267883
Rb	6.343472	6.339411	-3.803650
Ni	-5.074776	0.000000	-5.071528
Ni	-2.537384	-2.535766	-7.607294
O	-4.070485	0.999160	-6.070688
O	-3.541675	-1.536596	-8.606455
O	-6.607877	1.536596	-8.606455
O	-1.533102	-1.536596	-6.608124
O	-1.004293	4.072363	-6.070688
O	-1.004293	0.999160	-9.143891
O	-4.070485	4.072363	-9.143891
O	1.533100	1.536596	-6.608124
Rb	-6.343472	-1.267883	-8.875177
Rb	-1.268697	1.267883	-6.339411
Rb	1.268695	-1.267883	-6.339411
Rb	-3.806080	1.267883	-8.875177
Ni	0.000000	5.071528	-5.071528
Ni	2.537392	2.535762	-7.607294
O	1.004291	6.070688	-6.070688
O	1.533101	3.534932	-8.606455
O	-1.533101	6.608124	-8.606455
O	3.541674	3.534932	-6.608124
O	4.070483	9.143891	-6.070688
O	4.070483	6.070688	-9.143891
O	1.004291	9.143891	-9.143891
O	6.607876	6.608124	-6.608124
Rb	-1.268696	3.803645	-8.875177
Rb	3.806079	6.339411	-6.339411
Rb	6.343471	3.803645	-6.339411
Rb	1.268696	6.339411	-8.875177
Ni	5.074776	-5.071528	0.000000
Ni	7.612168	-7.607294	-2.535766
O	6.079068	-4.072368	-0.999160
O	6.607877	-6.608124	-3.534927
O	3.541675	-3.534932	-3.534927
O	8.616450	-6.608124	-1.536596
O	9.145260	-0.999165	-0.999160
O	9.145260	-4.072368	-4.072363
O	6.079068	-0.999165	-4.072363
O	11.682652	-3.534932	-1.536596
Rb	3.806080	-6.339411	-3.803650
Rb	8.880855	-3.803645	-1.267883
Rb	11.418247	-6.339411	-1.267883
Rb	6.343472	-3.803645	-3.803650
Ni	10.149552	0.000000	0.000000
Ni	12.686945	-2.535766	-2.535766
O	11.153844	0.999160	-0.999160
O	11.682653	-1.536596	-3.534927
O	8.616451	1.536596	-3.534927
O	13.691226	-1.536596	-1.536596
O	14.220036	4.072363	-0.999160
O	14.220036	0.999160	-4.072363
O	11.153844	4.072363	-4.072363
O	16.757428	1.536596	-1.536596
Rb	8.880856	-1.267883	-3.803650
Rb	13.955631	1.267883	-1.267883
Rb	16.493023	-1.267883	-1.267883
Rb	11.418248	1.267883	-3.803650
Ni	0.000000	-5.071528	-5.071528
Ni	2.537392	-7.607294	-7.607294
O	1.004291	-4.072368	-6.070688
O	1.533101	-6.608124	-8.606455
O	-1.533101	-3.534932	-8.606455
O	3.541674	-6.608124	-6.608124
O	4.070483	-0.999165	-6.070688
O	4.070483	-4.072368	-9.143891
O	1.004291	-0.999165	-9.143891
O	6.607876	-3.534932	-6.608124
Rb	-1.268696	-6.339411	-8.875177
Rb	3.806079	-3.803645	-6.339411
Rb	6.343471	-6.339411	-6.339411
Rb	1.268696	-3.803645	-8.875177
Ni	5.074776	0.000000	-5.071528
Ni	7.612168	-2.535766	-7.607294
O	6.079068	0.999160	-6.070688
O	6.607877	-1.536596	-8.606455
O	3.541675	1.536596	-8.606455
O	8.616450	-1.536596	-6.608124
O	9.145260	4.072363	-6.070688
O	9.145260	0.999160	-9.143891
O	6.079068	4.072363	-9.143891
O	11.682652	1.536596	-6.608124
Rb	3.806080	-1.267883	-8.875177
Rb	8.880855	1.267883	-6.339411
Rb	11.418247	-1.267883	-6.339411
Rb	6.343472	1.267883	-8.875177
