40

C	0.000000	0.000000	0.000000
Mg	1.969406	1.969406	1.969406
O	0.000000	1.969406	1.969406
O	1.969406	0.000000	1.969406
O	1.969406	1.969406	0.000000
C	0.000000	0.000000	3.938813
Mg	1.969406	1.969406	5.908219
O	0.000000	1.969406	5.908219
O	1.969406	0.000000	5.908219
O	1.969406	1.969406	3.938813
C	0.000000	3.938813	0.000000
Mg	1.969406	5.908219	1.969406
O	0.000000	5.908219	1.969406
O	1.969406	3.938813	1.969406
O	1.969406	5.908219	0.000000
C	0.000000	3.938813	3.938813
Mg	1.969406	5.908219	5.908219
O	0.000000	5.908219	5.908219
O	1.969406	3.938813	5.908219
O	1.969406	5.908219	3.938813
C	3.938813	0.000000	0.000000
Mg	5.908219	1.969406	1.969406
O	3.938813	1.969406	1.969406
O	5.908219	0.000000	1.969406
O	5.908219	1.969406	0.000000
C	3.938813	0.000000	3.938813
Mg	5.908219	1.969406	5.908219
O	3.938813	1.969406	5.908219
O	5.908219	0.000000	5.908219
O	5.908219	1.969406	3.938813
C	3.938813	3.938813	0.000000
Mg	5.908219	5.908219	1.969406
O	3.938813	5.908219	1.969406
O	5.908219	3.938813	1.969406
O	5.908219	5.908219	0.000000
C	3.938813	3.938813	3.938813
Mg	5.908219	5.908219	5.908219
O	3.938813	5.908219	5.908219
O	5.908219	3.938813	5.908219
O	5.908219	5.908219	3.938813
