40

C	1.695368	1.695368	1.695368
Mg	0.000000	0.000000	0.000000
O	0.000000	1.695368	1.695368
O	1.695368	0.000000	1.695368
O	1.695368	1.695368	0.000000
C	1.695368	1.695368	5.086103
Mg	0.000000	0.000000	3.390735
O	0.000000	1.695368	5.086103
O	1.695368	0.000000	5.086103
O	1.695368	1.695368	3.390735
C	1.695368	5.086103	1.695368
Mg	0.000000	3.390735	0.000000
O	0.000000	5.086103	1.695368
O	1.695368	3.390735	1.695368
O	1.695368	5.086103	0.000000
C	1.695368	5.086103	5.086103
Mg	0.000000	3.390735	3.390735
O	0.000000	5.086103	5.086103
O	1.695368	3.390735	5.086103
O	1.695368	5.086103	3.390735
C	5.086103	1.695368	1.695368
Mg	3.390735	0.000000	0.000000
O	3.390735	1.695368	1.695368
O	5.086103	0.000000	1.695368
O	5.086103	1.695368	0.000000
C	5.086103	1.695368	5.086103
Mg	3.390735	0.000000	3.390735
O	3.390735	1.695368	5.086103
O	5.086103	0.000000	5.086103
O	5.086103	1.695368	3.390735
C	5.086103	5.086103	1.695368
Mg	3.390735	3.390735	0.000000
O	3.390735	5.086103	1.695368
O	5.086103	3.390735	1.695368
O	5.086103	5.086103	0.000000
C	5.086103	5.086103	5.086103
Mg	3.390735	3.390735	3.390735
O	3.390735	5.086103	5.086103
O	5.086103	3.390735	5.086103
O	5.086103	5.086103	3.390735
