40

B	0.000000	0.000000	0.000000
O	0.000000	1.968430	1.968430
O	1.968430	0.000000	1.968430
O	1.968430	1.968430	0.000000
Sb	1.968430	1.968430	1.968430
B	0.000000	0.000000	3.936860
O	0.000000	1.968430	5.905290
O	1.968430	0.000000	5.905290
O	1.968430	1.968430	3.936860
Sb	1.968430	1.968430	5.905290
B	0.000000	3.936860	0.000000
O	0.000000	5.905290	1.968430
O	1.968430	3.936860	1.968430
O	1.968430	5.905290	0.000000
Sb	1.968430	5.905290	1.968430
B	0.000000	3.936860	3.936860
O	0.000000	5.905290	5.905290
O	1.968430	3.936860	5.905290
O	1.968430	5.905290	3.936860
Sb	1.968430	5.905290	5.905290
B	3.936860	0.000000	0.000000
O	3.936860	1.968430	1.968430
O	5.905290	0.000000	1.968430
O	5.905290	1.968430	0.000000
Sb	5.905290	1.968430	1.968430
B	3.936860	0.000000	3.936860
O	3.936860	1.968430	5.905290
O	5.905290	0.000000	5.905290
O	5.905290	1.968430	3.936860
Sb	5.905290	1.968430	5.905290
B	3.936860	3.936860	0.000000
O	3.936860	5.905290	1.968430
O	5.905290	3.936860	1.968430
O	5.905290	5.905290	0.000000
Sb	5.905290	5.905290	1.968430
B	3.936860	3.936860	3.936860
O	3.936860	5.905290	5.905290
O	5.905290	3.936860	5.905290
O	5.905290	5.905290	3.936860
Sb	5.905290	5.905290	5.905290
