40

Ag	0.000000	0.000000	0.000000
O	2.243096	2.243096	0.000000
O	2.243096	0.000000	2.243096
O	0.000000	2.243096	2.243096
Sr	2.243096	2.243096	2.243096
Ag	0.000000	0.000000	4.486203
O	2.243096	2.243096	4.486203
O	2.243096	0.000000	6.729299
O	0.000000	2.243096	6.729299
Sr	2.243096	2.243096	6.729299
Ag	0.000000	4.486203	0.000000
O	2.243096	6.729299	0.000000
O	2.243096	4.486203	2.243096
O	0.000000	6.729299	2.243096
Sr	2.243096	6.729299	2.243096
Ag	0.000000	4.486203	4.486203
O	2.243096	6.729299	4.486203
O	2.243096	4.486203	6.729299
O	0.000000	6.729299	6.729299
Sr	2.243096	6.729299	6.729299
Ag	4.486203	0.000000	0.000000
O	6.729299	2.243096	0.000000
O	6.729299	0.000000	2.243096
O	4.486203	2.243096	2.243096
Sr	6.729299	2.243096	2.243096
Ag	4.486203	0.000000	4.486203
O	6.729299	2.243096	4.486203
O	6.729299	0.000000	6.729299
O	4.486203	2.243096	6.729299
Sr	6.729299	2.243096	6.729299
Ag	4.486203	4.486203	0.000000
O	6.729299	6.729299	0.000000
O	6.729299	4.486203	2.243096
O	4.486203	6.729299	2.243096
Sr	6.729299	6.729299	2.243096
Ag	4.486203	4.486203	4.486203
O	6.729299	6.729299	4.486203
O	6.729299	4.486203	6.729299
O	4.486203	6.729299	6.729299
Sr	6.729299	6.729299	6.729299
