384

O	4.682464	0.904717	-0.904717
O	6.491898	-0.904717	0.904717
O	2.028284	1.544554	-1.297315
O	6.884496	2.028284	-1.544554
O	1.544554	-1.297315	2.028284
O	0.904717	0.904717	0.904717
O	4.289866	3.558897	-1.544554
O	7.131735	-1.297315	3.558897
O	3.558897	-1.544554	4.289866
O	3.558897	1.544554	1.297315
O	7.131735	1.297315	2.028284
O	-1.297315	2.028284	1.544554
O	0.904717	-0.904717	4.682464
O	1.544554	1.297315	3.558897
O	1.297315	3.558897	1.544554
O	2.028284	-1.544554	6.884496
O	-0.904717	4.682464	0.904717
O	0.904717	6.491898	-0.904717
O	3.558897	7.131735	-1.297315
O	4.289866	2.028284	4.042627
O	4.042627	4.289866	2.028284
O	-0.904717	0.904717	6.491898
O	6.884496	3.558897	4.042627
O	-1.544554	4.289866	3.558897
O	2.028284	4.042627	4.289866
O	2.028284	7.131735	1.297315
O	-1.544554	6.884496	2.028284
O	1.297315	2.028284	7.131735
O	4.682464	4.682464	4.682464
O	4.042627	6.884496	3.558897
O	-1.297315	3.558897	7.131735
O	3.558897	4.042627	6.884496
Te	2.793590	0.377095	0.000000
Te	5.587181	2.793590	-0.377095
Te	0.377095	0.000000	2.793590
Te	5.964276	0.000000	2.793590
Te	-0.000000	2.793590	0.377095
Te	2.793590	-0.377095	5.587181
Te	2.793590	5.964276	-0.000000
Te	5.587181	2.793590	5.210086
Te	-0.377095	5.587181	2.793590
Te	5.210086	5.587181	2.793590
Te	-0.000000	2.793590	5.964276
Te	2.793590	5.210086	5.587181
Zr	2.793590	-2.793590	2.793590
Zr	2.793590	2.793590	-2.793590
Zr	-2.793590	2.793590	2.793590
Zr	2.793590	2.793590	2.793590
O	-0.904717	6.491898	4.682464
O	0.904717	4.682464	6.491898
O	-3.558897	7.131735	4.289866
O	1.297315	7.615465	4.042627
O	-4.042627	4.289866	7.615465
O	-4.682464	6.491898	6.491898
O	-1.297315	9.146078	4.042627
O	1.544554	4.289866	9.146078
O	-2.028284	4.042627	9.877047
O	-2.028284	7.131735	6.884496
O	1.544554	6.884496	7.615465
O	-6.884496	7.615465	7.131735
O	-4.682464	4.682464	10.269645
O	-4.042627	6.884496	9.146078
O	-4.289866	9.146078	7.131735
O	-3.558897	4.042627	12.471677
O	-6.491898	10.269645	6.491898
O	-4.682464	12.079079	4.682464
O	-2.028284	12.718916	4.289866
O	-1.297315	7.615465	9.629808
O	-1.544554	9.877047	7.615465
O	-6.491898	6.491898	12.079079
O	1.297315	9.146078	9.629808
O	-7.131735	9.877047	9.146078
O	-3.558897	9.629808	9.877047
O	-3.558897	12.718916	6.884496
O	-7.131735	12.471677	7.615465
O	-4.289866	7.615465	12.718916
O	-0.904717	10.269645	10.269645
O	-1.544554	12.471677	9.146078
O	-6.884496	9.146078	12.718916
O	-2.028284	9.629808	12.471677
Te	-2.793590	5.964276	5.587181
Te	0.000000	8.380771	5.210086
Te	-5.210086	5.587181	8.380771
Te	0.377095	5.587181	8.380771
Te	-5.587181	8.380771	5.964276
Te	-2.793590	5.210086	11.174362
Te	-2.793590	11.551457	5.587181
Te	-0.000000	8.380771	10.797267
Te	-5.964276	11.174362	8.380771
Te	-0.377095	11.174362	8.380771
Te	-5.587181	8.380771	11.551457
Te	-2.793590	10.797267	11.174362
Zr	-2.793590	2.793590	8.380771
Zr	-2.793590	8.380771	2.793590
Zr	-8.380771	8.380771	8.380771
Zr	-2.793590	8.380771	8.380771
O	10.269645	6.491898	-6.491898
O	12.079079	4.682464	-4.682464
O	7.615465	7.131735	-6.884496
O	12.471677	7.615465	-7.131735
O	7.131735	4.289866	-3.558897
O	6.491898	6.491898	-4.682464
O	9.877047	9.146078	-7.131735
O	12.718916	4.289866	-2.028284
O	9.146078	4.042627	-1.297315
O	9.146078	7.131735	-4.289866
O	12.718916	6.884496	-3.558897
O	4.289866	7.615465	-4.042627
O	6.491898	4.682464	-0.904717
O	7.131735	6.884496	-2.028284
O	6.884496	9.146078	-4.042627
O	7.615465	4.042627	1.297315
O	4.682464	10.269645	-4.682464
O	6.491898	12.079079	-6.491898
O	9.146078	12.718916	-6.884496
O	9.877047	7.615465	-1.544554
O	9.629808	9.877047	-3.558897
O	4.682464	6.491898	0.904717
O	12.471677	9.146078	-1.544554
O	4.042627	9.877047	-2.028284
O	7.615465	9.629808	-1.297315
O	7.615465	12.718916	-4.289866
O	4.042627	12.471677	-3.558897
O	6.884496	7.615465	1.544554
O	10.269645	10.269645	-0.904717
O	9.629808	12.471677	-2.028284
O	4.289866	9.146078	1.544554
O	9.146078	9.629808	1.297315
Te	8.380771	5.964276	-5.587181
Te	11.174362	8.380771	-5.964276
Te	5.964276	5.587181	-2.793590
Te	11.551457	5.587181	-2.793590
Te	5.587181	8.380771	-5.210086
Te	8.380771	5.210086	0.000000
Te	8.380771	11.551457	-5.587181
Te	11.174362	8.380771	-0.377095
Te	5.210086	11.174362	-2.793590
Te	10.797267	11.174362	-2.793590
Te	5.587181	8.380771	0.377095
Te	8.380771	10.797267	0.000000
Zr	8.380771	2.793590	-2.793590
Zr	8.380771	8.380771	-8.380771
Zr	2.793590	8.380771	-2.793590
Zr	8.380771	8.380771	-2.793590
O	4.682464	12.079079	-0.904717
O	6.491898	10.269645	0.904717
O	2.028284	12.718916	-1.297315
O	6.884496	13.202646	-1.544554
O	1.544554	9.877047	2.028284
O	0.904717	12.079079	0.904717
O	4.289866	14.733259	-1.544554
O	7.131735	9.877047	3.558897
O	3.558897	9.629808	4.289866
O	3.558897	12.718916	1.297315
O	7.131735	12.471677	2.028284
O	-1.297315	13.202646	1.544554
O	0.904717	10.269645	4.682464
O	1.544554	12.471677	3.558897
O	1.297315	14.733259	1.544554
O	2.028284	9.629808	6.884496
O	-0.904717	15.856826	0.904717
O	0.904717	17.666260	-0.904717
O	3.558897	18.306097	-1.297315
O	4.289866	13.202646	4.042627
O	4.042627	15.464228	2.028284
O	-0.904717	12.079079	6.491898
O	6.884496	14.733259	4.042627
O	-1.544554	15.464228	3.558897
O	2.028284	15.216989	4.289866
O	2.028284	18.306097	1.297315
O	-1.544554	18.058858	2.028284
O	1.297315	13.202646	7.131735
O	4.682464	15.856826	4.682464
O	4.042627	18.058858	3.558897
O	-1.297315	14.733259	7.131735
O	3.558897	15.216989	6.884496
Te	2.793590	11.551457	0.000000
Te	5.587181	13.967952	-0.377095
Te	0.377095	11.174362	2.793590
Te	5.964276	11.174362	2.793590
Te	0.000000	13.967952	0.377095
Te	2.793590	10.797267	5.587181
Te	2.793590	17.138638	0.000000
Te	5.587181	13.967952	5.210086
Te	-0.377095	16.761543	2.793590
Te	5.210086	16.761543	2.793590
Te	0.000000	13.967952	5.964276
Te	2.793590	16.384448	5.587181
Zr	2.793590	8.380771	2.793590
Zr	2.793590	13.967952	-2.793590
Zr	-2.793590	13.967952	2.793590
Zr	2.793590	13.967952	2.793590
O	10.269645	-4.682464	4.682464
O	12.079079	-6.491898	6.491898
O	7.615465	-4.042627	4.289866
O	12.471677	-3.558897	4.042627
O	7.131735	-6.884496	7.615465
O	6.491898	-4.682464	6.491898
O	9.877047	-2.028284	4.042627
O	12.718916	-6.884496	9.146078
O	9.146078	-7.131735	9.877047
O	9.146078	-4.042627	6.884496
O	12.718916	-4.289866	7.615465
O	4.289866	-3.558897	7.131735
O	6.491898	-6.491898	10.269645
O	7.131735	-4.289866	9.146078
O	6.884496	-2.028284	7.131735
O	7.615465	-7.131735	12.471677
O	4.682464	-0.904717	6.491898
O	6.491898	0.904717	4.682464
O	9.146078	1.544554	4.289866
O	9.877047	-3.558897	9.629808
O	9.629808	-1.297315	7.615465
O	4.682464	-4.682464	12.079079
O	12.471677	-2.028284	9.629808
O	4.042627	-1.297315	9.146078
O	7.615465	-1.544554	9.877047
O	7.615465	1.544554	6.884496
O	4.042627	1.297315	7.615465
O	6.884496	-3.558897	12.718916
O	10.269645	-0.904717	10.269645
O	9.629808	1.297315	9.146078
O	4.289866	-2.028284	12.718916
O	9.146078	-1.544554	12.471677
Te	8.380771	-5.210086	5.587181
Te	11.174362	-2.793590	5.210086
Te	5.964276	-5.587181	8.380771
Te	11.551457	-5.587181	8.380771
Te	5.587181	-2.793590	5.964276
Te	8.380771	-5.964276	11.174362
Te	8.380771	0.377095	5.587181
Te	11.174362	-2.793590	10.797267
Te	5.210086	0.000000	8.380771
Te	10.797267	0.000000	8.380771
Te	5.587181	-2.793590	11.551457
Te	8.380771	-0.377095	11.174362
Zr	8.380771	-8.380771	8.380771
Zr	8.380771	-2.793590	2.793590
Zr	2.793590	-2.793590	8.380771
Zr	8.380771	-2.793590	8.380771
O	4.682464	0.904717	10.269645
O	6.491898	-0.904717	12.079079
O	2.028284	1.544554	9.877047
O	6.884496	2.028284	9.629808
O	1.544554	-1.297315	13.202646
O	0.904717	0.904717	12.079079
O	4.289866	3.558897	9.629808
O	7.131735	-1.297315	14.733259
O	3.558897	-1.544554	15.464228
O	3.558897	1.544554	12.471677
O	7.131735	1.297315	13.202646
O	-1.297315	2.028284	12.718916
O	0.904717	-0.904717	15.856826
O	1.544554	1.297315	14.733259
O	1.297315	3.558897	12.718916
O	2.028284	-1.544554	18.058858
O	-0.904717	4.682464	12.079079
O	0.904717	6.491898	10.269645
O	3.558897	7.131735	9.877047
O	4.289866	2.028284	15.216989
O	4.042627	4.289866	13.202646
O	-0.904717	0.904717	17.666260
O	6.884496	3.558897	15.216989
O	-1.544554	4.289866	14.733259
O	2.028284	4.042627	15.464228
O	2.028284	7.131735	12.471677
O	-1.544554	6.884496	13.202646
O	1.297315	2.028284	18.306097
O	4.682464	4.682464	15.856826
O	4.042627	6.884496	14.733259
O	-1.297315	3.558897	18.306097
O	3.558897	4.042627	18.058858
Te	2.793590	0.377095	11.174362
Te	5.587181	2.793590	10.797267
Te	0.377095	0.000000	13.967952
Te	5.964276	0.000000	13.967952
Te	0.000000	2.793590	11.551457
Te	2.793590	-0.377095	16.761543
Te	2.793590	5.964276	11.174362
Te	5.587181	2.793590	16.384448
Te	-0.377095	5.587181	13.967952
Te	5.210086	5.587181	13.967952
Te	0.000000	2.793590	17.138638
Te	2.793590	5.210086	16.761543
Zr	2.793590	-2.793590	13.967952
Zr	2.793590	2.793590	8.380771
Zr	-2.793590	2.793590	13.967952
Zr	2.793590	2.793590	13.967952
O	15.856826	0.904717	-0.904717
O	17.666260	-0.904717	0.904717
O	13.202646	1.544554	-1.297315
O	18.058858	2.028284	-1.544554
O	12.718916	-1.297315	2.028284
O	12.079079	0.904717	0.904717
O	15.464228	3.558897	-1.544554
O	18.306097	-1.297315	3.558897
O	14.733259	-1.544554	4.289866
O	14.733259	1.544554	1.297315
O	18.306097	1.297315	2.028284
O	9.877047	2.028284	1.544554
O	12.079079	-0.904717	4.682464
O	12.718916	1.297315	3.558897
O	12.471677	3.558897	1.544554
O	13.202646	-1.544554	6.884496
O	10.269645	4.682464	0.904717
O	12.079079	6.491898	-0.904717
O	14.733259	7.131735	-1.297315
O	15.464228	2.028284	4.042627
O	15.216989	4.289866	2.028284
O	10.269645	0.904717	6.491898
O	18.058858	3.558897	4.042627
O	9.629808	4.289866	3.558897
O	13.202646	4.042627	4.289866
O	13.202646	7.131735	1.297315
O	9.629808	6.884496	2.028284
O	12.471677	2.028284	7.131735
O	15.856826	4.682464	4.682464
O	15.216989	6.884496	3.558897
O	9.877047	3.558897	7.131735
O	14.733259	4.042627	6.884496
Te	13.967952	0.377095	0.000000
Te	16.761543	2.793590	-0.377095
Te	11.551457	0.000000	2.793590
Te	17.138638	0.000000	2.793590
Te	11.174362	2.793590	0.377095
Te	13.967952	-0.377095	5.587181
Te	13.967952	5.964276	0.000000
Te	16.761543	2.793590	5.210086
Te	10.797267	5.587181	2.793590
Te	16.384448	5.587181	2.793590
Te	11.174362	2.793590	5.964276
Te	13.967952	5.210086	5.587181
Zr	13.967952	-2.793590	2.793590
Zr	13.967952	2.793590	-2.793590
Zr	8.380771	2.793590	2.793590
Zr	13.967952	2.793590	2.793590
O	10.269645	6.491898	4.682464
O	12.079079	4.682464	6.491898
O	7.615465	7.131735	4.289866
O	12.471677	7.615465	4.042627
O	7.131735	4.289866	7.615465
O	6.491898	6.491898	6.491898
O	9.877047	9.146078	4.042627
O	12.718916	4.289866	9.146078
O	9.146078	4.042627	9.877047
O	9.146078	7.131735	6.884496
O	12.718916	6.884496	7.615465
O	4.289866	7.615465	7.131735
O	6.491898	4.682464	10.269645
O	7.131735	6.884496	9.146078
O	6.884496	9.146078	7.131735
O	7.615465	4.042627	12.471677
O	4.682464	10.269645	6.491898
O	6.491898	12.079079	4.682464
O	9.146078	12.718916	4.289866
O	9.877047	7.615465	9.629808
O	9.629808	9.877047	7.615465
O	4.682464	6.491898	12.079079
O	12.471677	9.146078	9.629808
O	4.042627	9.877047	9.146078
O	7.615465	9.629808	9.877047
O	7.615465	12.718916	6.884496
O	4.042627	12.471677	7.615465
O	6.884496	7.615465	12.718916
O	10.269645	10.269645	10.269645
O	9.629808	12.471677	9.146078
O	4.289866	9.146078	12.718916
O	9.146078	9.629808	12.471677
Te	8.380771	5.964276	5.587181
Te	11.174362	8.380771	5.210086
Te	5.964276	5.587181	8.380771
Te	11.551457	5.587181	8.380771
Te	5.587181	8.380771	5.964276
Te	8.380771	5.210086	11.174362
Te	8.380771	11.551457	5.587181
Te	11.174362	8.380771	10.797267
Te	5.210086	11.174362	8.380771
Te	10.797267	11.174362	8.380771
Te	5.587181	8.380771	11.551457
Te	8.380771	10.797267	11.174362
Zr	8.380771	2.793590	8.380771
Zr	8.380771	8.380771	2.793590
Zr	2.793590	8.380771	8.380771
Zr	8.380771	8.380771	8.380771
