40

Cd	2.063033	2.063033	2.063033
O	2.063033	2.063033	0.000000
O	2.063033	0.000000	2.063033
O	0.000000	2.063033	2.063033
Ru	0.000000	0.000000	0.000000
Cd	2.063033	2.063033	6.189100
O	2.063033	2.063033	4.126067
O	2.063033	0.000000	6.189100
O	0.000000	2.063033	6.189100
Ru	0.000000	0.000000	4.126067
Cd	2.063033	6.189100	2.063033
O	2.063033	6.189100	0.000000
O	2.063033	4.126067	2.063033
O	0.000000	6.189100	2.063033
Ru	0.000000	4.126067	0.000000
Cd	2.063033	6.189100	6.189100
O	2.063033	6.189100	4.126067
O	2.063033	4.126067	6.189100
O	0.000000	6.189100	6.189100
Ru	0.000000	4.126067	4.126067
Cd	6.189100	2.063033	2.063033
O	6.189100	2.063033	0.000000
O	6.189100	0.000000	2.063033
O	4.126067	2.063033	2.063033
Ru	4.126067	0.000000	0.000000
Cd	6.189100	2.063033	6.189100
O	6.189100	2.063033	4.126067
O	6.189100	0.000000	6.189100
O	4.126067	2.063033	6.189100
Ru	4.126067	0.000000	4.126067
Cd	6.189100	6.189100	2.063033
O	6.189100	6.189100	0.000000
O	6.189100	4.126067	2.063033
O	4.126067	6.189100	2.063033
Ru	4.126067	4.126067	0.000000
Cd	6.189100	6.189100	6.189100
O	6.189100	6.189100	4.126067
O	6.189100	4.126067	6.189100
O	4.126067	6.189100	6.189100
Ru	4.126067	4.126067	4.126067
