40

Cd	0.000000	0.000000	0.000000
O	0.000000	1.968826	1.968826
O	1.968826	0.000000	1.968826
O	1.968826	1.968826	0.000000
Ru	1.968826	1.968826	1.968826
Cd	0.000000	0.000000	3.937652
O	0.000000	1.968826	5.906479
O	1.968826	0.000000	5.906479
O	1.968826	1.968826	3.937652
Ru	1.968826	1.968826	5.906479
Cd	0.000000	3.937652	0.000000
O	0.000000	5.906479	1.968826
O	1.968826	3.937652	1.968826
O	1.968826	5.906479	0.000000
Ru	1.968826	5.906479	1.968826
Cd	0.000000	3.937652	3.937652
O	0.000000	5.906479	5.906479
O	1.968826	3.937652	5.906479
O	1.968826	5.906479	3.937652
Ru	1.968826	5.906479	5.906479
Cd	3.937652	0.000000	0.000000
O	3.937652	1.968826	1.968826
O	5.906479	0.000000	1.968826
O	5.906479	1.968826	0.000000
Ru	5.906479	1.968826	1.968826
Cd	3.937652	0.000000	3.937652
O	3.937652	1.968826	5.906479
O	5.906479	0.000000	5.906479
O	5.906479	1.968826	3.937652
Ru	5.906479	1.968826	5.906479
Cd	3.937652	3.937652	0.000000
O	3.937652	5.906479	1.968826
O	5.906479	3.937652	1.968826
O	5.906479	5.906479	0.000000
Ru	5.906479	5.906479	1.968826
Cd	3.937652	3.937652	3.937652
O	3.937652	5.906479	5.906479
O	5.906479	3.937652	5.906479
O	5.906479	5.906479	3.937652
Ru	5.906479	5.906479	5.906479
