112

Al	0.000000	0.000000	0.000000
Al	2.052541	-2.052861	-2.052861
Co	-1.026270	-1.026430	-3.079291
Co	3.078811	1.026430	-1.026430
Co	5.131352	-1.026430	-1.026430
Co	1.026270	1.026430	-3.079291
O	3.089016	-1.015814	-1.015814
O	-1.016065	1.015814	-3.089908
O	1.016065	-1.015814	-3.089908
O	1.036476	1.037047	-1.037047
O	5.121146	1.015814	-1.015814
O	1.036476	3.068675	-3.068675
O	3.068606	3.068675	-1.037047
O	3.068606	1.037047	-3.068675
Al	4.105081	4.105722	0.000000
Al	6.157622	2.052861	-2.052861
Co	3.078811	3.079291	-3.079291
Co	7.183892	5.132152	-1.026430
Co	9.236433	3.079291	-1.026430
Co	5.131352	5.132152	-3.079291
O	7.194098	3.089908	-1.015814
O	3.089016	5.121536	-3.089908
O	5.121146	3.089908	-3.089908
O	5.141557	5.142769	-1.037047
O	9.226228	5.121536	-1.015814
O	5.141557	7.174396	-3.068675
O	7.173687	7.174396	-1.037047
O	7.173687	5.142769	-3.068675
Al	-4.105081	0.000000	-4.105722
Al	-2.052541	-2.052861	-6.158583
Co	-5.131352	-1.026430	-7.185013
Co	-1.026270	1.026430	-5.132152
Co	1.026270	-1.026430	-5.132152
Co	-3.078811	1.026430	-7.185013
O	-1.016065	-1.015814	-5.121536
O	-5.121146	1.015814	-7.195630
O	-3.089016	-1.015814	-7.195630
O	-3.068606	1.037047	-5.142769
O	1.016065	1.015814	-5.121536
O	-3.068606	3.068675	-7.174396
O	-1.036476	3.068675	-5.142769
O	-1.036476	1.037047	-7.174396
Al	0.000000	4.105722	-4.105722
Al	2.052541	2.052861	-6.158583
Co	-1.026270	3.079291	-7.185013
Co	3.078811	5.132152	-5.132152
Co	5.131352	3.079291	-5.132152
Co	1.026270	5.132152	-7.185013
O	3.089016	3.089908	-5.121536
O	-1.016065	5.121536	-7.195630
O	1.016065	3.089908	-7.195630
O	1.036476	5.142769	-5.142769
O	5.121146	5.121536	-5.121536
O	1.036476	7.174396	-7.174396
O	3.068606	7.174396	-5.142769
O	3.068606	5.142769	-7.174396
Al	4.105081	-4.105722	0.000000
Al	6.157622	-6.158583	-2.052861
Co	3.078811	-5.132152	-3.079291
Co	7.183892	-3.079291	-1.026430
Co	9.236433	-5.132152	-1.026430
Co	5.131352	-3.079291	-3.079291
O	7.194098	-5.121536	-1.015814
O	3.089016	-3.089908	-3.089908
O	5.121146	-5.121536	-3.089908
O	5.141557	-3.068675	-1.037047
O	9.226228	-3.089908	-1.015814
O	5.141557	-1.037047	-3.068675
O	7.173687	-1.037047	-1.037047
O	7.173687	-3.068675	-3.068675
Al	8.210163	0.000000	0.000000
Al	10.262703	-2.052861	-2.052861
Co	7.183892	-1.026430	-3.079291
Co	11.288974	1.026430	-1.026430
Co	13.341514	-1.026430	-1.026430
Co	9.236433	1.026430	-3.079291
O	11.299179	-1.015814	-1.015814
O	7.194098	1.015814	-3.089908
O	9.226228	-1.015814	-3.089908
O	9.246638	1.037047	-1.037047
O	13.331309	1.015814	-1.015814
O	9.246638	3.068675	-3.068675
O	11.278768	3.068675	-1.037047
O	11.278768	1.037047	-3.068675
Al	0.000000	-4.105722	-4.105722
Al	2.052541	-6.158583	-6.158583
Co	-1.026270	-5.132152	-7.185013
Co	3.078811	-3.079291	-5.132152
Co	5.131352	-5.132152	-5.132152
Co	1.026270	-3.079291	-7.185013
O	3.089016	-5.121536	-5.121536
O	-1.016065	-3.089908	-7.195630
O	1.016065	-5.121536	-7.195630
O	1.036476	-3.068675	-5.142769
O	5.121146	-3.089908	-5.121536
O	1.036476	-1.037047	-7.174396
O	3.068606	-1.037047	-5.142769
O	3.068606	-3.068675	-7.174396
Al	4.105081	0.000000	-4.105722
Al	6.157622	-2.052861	-6.158583
Co	3.078811	-1.026430	-7.185013
Co	7.183892	1.026430	-5.132152
Co	9.236433	-1.026430	-5.132152
Co	5.131352	1.026430	-7.185013
O	7.194098	-1.015814	-5.121536
O	3.089016	1.015814	-7.195630
O	5.121146	-1.015814	-7.195630
O	5.141557	1.037047	-5.142769
O	9.226228	1.015814	-5.121536
O	5.141557	3.068675	-7.174396
O	7.173687	3.068675	-5.142769
O	7.173687	1.037047	-7.174396
