40

Co	0.000000	0.000000	0.000000
O	2.126163	2.126163	0.000000
O	2.126163	0.000000	2.126163
O	0.000000	2.126163	2.126163
Rb	2.126163	2.126163	2.126163
Co	0.000000	0.000000	4.252332
O	2.126163	2.126163	4.252332
O	2.126163	0.000000	6.378495
O	0.000000	2.126163	6.378495
Rb	2.126163	2.126163	6.378495
Co	0.000000	4.252332	0.000000
O	2.126163	6.378495	0.000000
O	2.126163	4.252332	2.126163
O	0.000000	6.378495	2.126163
Rb	2.126163	6.378495	2.126163
Co	0.000000	4.252332	4.252332
O	2.126163	6.378495	4.252332
O	2.126163	4.252332	6.378495
O	0.000000	6.378495	6.378495
Rb	2.126163	6.378495	6.378495
Co	4.252332	0.000000	0.000000
O	6.378495	2.126163	0.000000
O	6.378495	0.000000	2.126163
O	4.252332	2.126163	2.126163
Rb	6.378495	2.126163	2.126163
Co	4.252332	0.000000	4.252332
O	6.378495	2.126163	4.252332
O	6.378495	0.000000	6.378495
O	4.252332	2.126163	6.378495
Rb	6.378495	2.126163	6.378495
Co	4.252332	4.252332	0.000000
O	6.378495	6.378495	0.000000
O	6.378495	4.252332	2.126163
O	4.252332	6.378495	2.126163
Rb	6.378495	6.378495	2.126163
Co	4.252332	4.252332	4.252332
O	6.378495	6.378495	4.252332
O	6.378495	4.252332	6.378495
O	4.252332	6.378495	6.378495
Rb	6.378495	6.378495	6.378495
