40

O	0.000000	1.978221	1.978221
O	1.978221	0.000000	1.978221
O	1.978221	1.978221	0.000000
Pd	1.978221	1.978221	1.978221
Pt	0.000000	0.000000	0.000000
O	0.000000	1.978221	5.934664
O	1.978221	0.000000	5.934664
O	1.978221	1.978221	3.956443
Pd	1.978221	1.978221	5.934664
Pt	0.000000	0.000000	3.956443
O	0.000000	5.934664	1.978221
O	1.978221	3.956443	1.978221
O	1.978221	5.934664	0.000000
Pd	1.978221	5.934664	1.978221
Pt	0.000000	3.956443	0.000000
O	0.000000	5.934664	5.934664
O	1.978221	3.956443	5.934664
O	1.978221	5.934664	3.956443
Pd	1.978221	5.934664	5.934664
Pt	0.000000	3.956443	3.956443
O	3.956443	1.978221	1.978221
O	5.934664	0.000000	1.978221
O	5.934664	1.978221	0.000000
Pd	5.934664	1.978221	1.978221
Pt	3.956443	0.000000	0.000000
O	3.956443	1.978221	5.934664
O	5.934664	0.000000	5.934664
O	5.934664	1.978221	3.956443
Pd	5.934664	1.978221	5.934664
Pt	3.956443	0.000000	3.956443
O	3.956443	5.934664	1.978221
O	5.934664	3.956443	1.978221
O	5.934664	5.934664	0.000000
Pd	5.934664	5.934664	1.978221
Pt	3.956443	3.956443	0.000000
O	3.956443	5.934664	5.934664
O	5.934664	3.956443	5.934664
O	5.934664	5.934664	3.956443
Pd	5.934664	5.934664	5.934664
Pt	3.956443	3.956443	3.956443
