40

Cd	0.000000	0.000000	0.000000
O	0.000000	2.043688	2.043688
O	2.043688	0.000000	2.043688
O	2.043688	2.043688	0.000000
Sb	2.043688	2.043688	2.043688
Cd	0.000000	0.000000	4.087377
O	0.000000	2.043688	6.131065
O	2.043688	0.000000	6.131065
O	2.043688	2.043688	4.087377
Sb	2.043688	2.043688	6.131065
Cd	0.000000	4.087377	0.000000
O	0.000000	6.131065	2.043688
O	2.043688	4.087377	2.043688
O	2.043688	6.131065	0.000000
Sb	2.043688	6.131065	2.043688
Cd	0.000000	4.087377	4.087377
O	0.000000	6.131065	6.131065
O	2.043688	4.087377	6.131065
O	2.043688	6.131065	4.087377
Sb	2.043688	6.131065	6.131065
Cd	4.087377	0.000000	0.000000
O	4.087377	2.043688	2.043688
O	6.131065	0.000000	2.043688
O	6.131065	2.043688	0.000000
Sb	6.131065	2.043688	2.043688
Cd	4.087377	0.000000	4.087377
O	4.087377	2.043688	6.131065
O	6.131065	0.000000	6.131065
O	6.131065	2.043688	4.087377
Sb	6.131065	2.043688	6.131065
Cd	4.087377	4.087377	0.000000
O	4.087377	6.131065	2.043688
O	6.131065	4.087377	2.043688
O	6.131065	6.131065	0.000000
Sb	6.131065	6.131065	2.043688
Cd	4.087377	4.087377	4.087377
O	4.087377	6.131065	6.131065
O	6.131065	4.087377	6.131065
O	6.131065	6.131065	4.087377
Sb	6.131065	6.131065	6.131065
