112

O	3.794479	-1.104663	-1.104663
O	-1.104884	1.104664	-3.796336
O	1.104884	-1.104663	-3.796336
O	1.344797	1.345836	-1.345836
O	6.004248	1.104664	-1.104663
O	1.344797	3.555163	-3.555163
O	3.554566	3.555163	-1.345836
O	3.554566	1.345836	-3.555163
Th	0.000000	0.000000	0.000000
Th	2.449682	-2.450500	-2.450500
Y	-1.224841	-1.225250	-3.675749
Y	3.674523	1.225250	-1.225250
Y	6.124204	-1.225250	-1.225250
Y	1.224841	1.225250	-3.675749
O	8.693843	3.796336	-1.104663
O	3.794479	6.005663	-3.796336
O	6.004248	3.796336	-3.796336
O	6.244161	6.246835	-1.345836
O	10.903611	6.005663	-1.104663
O	6.244161	8.456162	-3.555163
O	8.453930	8.456162	-1.345836
O	8.453930	6.246835	-3.555163
Th	4.899364	4.900999	0.000000
Th	7.349045	2.450500	-2.450500
Y	3.674523	3.675749	-3.675749
Y	8.573886	6.126249	-1.225250
Y	11.023568	3.675749	-1.225250
Y	6.124204	6.126249	-3.675749
O	-1.104884	-1.104663	-6.005663
O	-6.004248	1.104664	-8.697335
O	-3.794479	-1.104663	-8.697335
O	-3.554566	1.345836	-6.246835
O	1.104884	1.104664	-6.005663
O	-3.554566	3.555163	-8.456162
O	-1.344797	3.555163	-6.246835
O	-1.344797	1.345836	-8.456162
Th	-4.899364	0.000000	-4.900999
Th	-2.449682	-2.450500	-7.351499
Y	-6.124204	-1.225250	-8.576749
Y	-1.224841	1.225250	-6.126249
Y	1.224841	-1.225250	-6.126249
Y	-3.674523	1.225250	-8.576749
O	3.794479	3.796336	-6.005663
O	-1.104884	6.005663	-8.697335
O	1.104884	3.796336	-8.697335
O	1.344797	6.246835	-6.246835
O	6.004248	6.005663	-6.005663
O	1.344797	8.456162	-8.456162
O	3.554566	8.456162	-6.246835
O	3.554566	6.246835	-8.456162
Th	0.000000	4.900999	-4.900999
Th	2.449682	2.450500	-7.351499
Y	-1.224841	3.675749	-8.576749
Y	3.674523	6.126249	-6.126249
Y	6.124204	3.675749	-6.126249
Y	1.224841	6.126249	-8.576749
O	8.693843	-6.005663	-1.104663
O	3.794479	-3.796336	-3.796336
O	6.004248	-6.005663	-3.796336
O	6.244161	-3.555163	-1.345836
O	10.903611	-3.796336	-1.104663
O	6.244161	-1.345836	-3.555163
O	8.453930	-1.345836	-1.345836
O	8.453930	-3.555163	-3.555163
Th	4.899364	-4.900999	0.000000
Th	7.349045	-7.351499	-2.450500
Y	3.674523	-6.126249	-3.675749
Y	8.573886	-3.675749	-1.225250
Y	11.023568	-6.126249	-1.225250
Y	6.124204	-3.675749	-3.675749
O	13.593206	-1.104663	-1.104663
O	8.693843	1.104664	-3.796336
O	10.903611	-1.104663	-3.796336
O	11.143524	1.345836	-1.345836
O	15.802975	1.104664	-1.104663
O	11.143524	3.555163	-3.555163
O	13.353293	3.555163	-1.345836
O	13.353293	1.345836	-3.555163
Th	9.798727	0.000000	0.000000
Th	12.248409	-2.450500	-2.450500
Y	8.573886	-1.225250	-3.675749
Y	13.473250	1.225250	-1.225250
Y	15.922931	-1.225250	-1.225250
Y	11.023568	1.225250	-3.675749
O	3.794479	-6.005663	-6.005663
O	-1.104884	-3.796336	-8.697335
O	1.104884	-6.005663	-8.697335
O	1.344797	-3.555163	-6.246835
O	6.004248	-3.796336	-6.005663
O	1.344797	-1.345836	-8.456162
O	3.554566	-1.345836	-6.246835
O	3.554566	-3.555163	-8.456162
Th	0.000000	-4.900999	-4.900999
Th	2.449682	-7.351499	-7.351499
Y	-1.224841	-6.126249	-8.576749
Y	3.674523	-3.675749	-6.126249
Y	6.124204	-6.126249	-6.126249
Y	1.224841	-3.675749	-8.576749
O	8.693843	-1.104663	-6.005663
O	3.794479	1.104664	-8.697335
O	6.004248	-1.104663	-8.697335
O	6.244161	1.345836	-6.246835
O	10.903611	1.104664	-6.005663
O	6.244161	3.555163	-8.456162
O	8.453930	3.555163	-6.246835
O	8.453930	1.345836	-8.456162
Th	4.899364	0.000000	-4.900999
Th	7.349045	-2.450500	-7.351499
Y	3.674523	-1.225250	-8.576749
Y	8.573886	1.225250	-6.126249
Y	11.023568	-1.225250	-6.126249
Y	6.124204	1.225250	-8.576749
