40

Al	0.000000	0.000000	0.000000
O	2.000720	0.000000	2.000720
O	0.000000	2.000720	2.000720
O	2.000720	2.000720	0.000000
Sn	2.000720	2.000720	2.000720
Al	0.000000	0.000000	4.001442
O	2.000720	0.000000	6.002162
O	0.000000	2.000720	6.002162
O	2.000720	2.000720	4.001442
Sn	2.000720	2.000720	6.002162
Al	0.000000	4.001442	0.000000
O	2.000720	4.001442	2.000720
O	0.000000	6.002162	2.000720
O	2.000720	6.002162	0.000000
Sn	2.000720	6.002162	2.000720
Al	0.000000	4.001442	4.001442
O	2.000720	4.001442	6.002162
O	0.000000	6.002162	6.002162
O	2.000720	6.002162	4.001442
Sn	2.000720	6.002162	6.002162
Al	4.001442	0.000000	0.000000
O	6.002162	0.000000	2.000720
O	4.001442	2.000720	2.000720
O	6.002162	2.000720	0.000000
Sn	6.002162	2.000720	2.000720
Al	4.001442	0.000000	4.001442
O	6.002162	0.000000	6.002162
O	4.001442	2.000720	6.002162
O	6.002162	2.000720	4.001442
Sn	6.002162	2.000720	6.002162
Al	4.001442	4.001442	0.000000
O	6.002162	4.001442	2.000720
O	4.001442	6.002162	2.000720
O	6.002162	6.002162	0.000000
Sn	6.002162	6.002162	2.000720
Al	4.001442	4.001442	4.001442
O	6.002162	4.001442	6.002162
O	4.001442	6.002162	6.002162
O	6.002162	6.002162	4.001442
Sn	6.002162	6.002162	6.002162
