40

Al	1.858610	1.858610	1.858610
O	1.858610	1.858610	0.000000
O	0.000000	1.858610	1.858610
O	1.858610	0.000000	1.858610
Sn_d	0.000000	0.000000	0.000000
Al	1.858610	1.858610	5.575829
O	1.858610	1.858610	3.717219
O	0.000000	1.858610	5.575829
O	1.858610	0.000000	5.575829
Sn_d	0.000000	0.000000	3.717219
Al	1.858610	5.575829	1.858610
O	1.858610	5.575829	0.000000
O	0.000000	5.575829	1.858610
O	1.858610	3.717219	1.858610
Sn_d	0.000000	3.717219	0.000000
Al	1.858610	5.575829	5.575829
O	1.858610	5.575829	3.717219
O	0.000000	5.575829	5.575829
O	1.858610	3.717219	5.575829
Sn_d	0.000000	3.717219	3.717219
Al	5.575829	1.858610	1.858610
O	5.575829	1.858610	0.000000
O	3.717219	1.858610	1.858610
O	5.575829	0.000000	1.858610
Sn_d	3.717219	0.000000	0.000000
Al	5.575829	1.858610	5.575829
O	5.575829	1.858610	3.717219
O	3.717219	1.858610	5.575829
O	5.575829	0.000000	5.575829
Sn_d	3.717219	0.000000	3.717219
Al	5.575829	5.575829	1.858610
O	5.575829	5.575829	0.000000
O	3.717219	5.575829	1.858610
O	5.575829	3.717219	1.858610
Sn_d	3.717219	3.717219	0.000000
Al	5.575829	5.575829	5.575829
O	5.575829	5.575829	3.717219
O	3.717219	5.575829	5.575829
O	5.575829	3.717219	5.575829
Sn_d	3.717219	3.717219	3.717219
