112

La	0.000000	0.000000	0.000000
La	2.204404	-2.205530	-2.205530
Li	-1.102197	-1.102765	-3.308286
Li	5.510995	-1.102765	-1.102765
Li	1.102197	1.102765	-3.308286
Li	3.306601	1.102765	-1.102765
O	3.461667	-0.946199	-0.946199
O	-0.947130	0.946199	-3.464862
O	0.947130	-0.946199	-3.464862
O	1.257273	1.259332	-1.259332
O	5.355928	0.946199	-0.946199
O	1.257273	3.151719	-3.151719
O	3.151524	3.151719	-1.259332
O	3.151524	1.259332	-3.151719
La	4.408799	4.411052	0.000000
La	6.613203	2.205522	-2.205530
Li	3.306602	3.308287	-3.308286
Li	9.919794	3.308287	-1.102765
Li	5.510996	5.513818	-3.308286
Li	7.715400	5.513818	-1.102765
O	7.870466	3.464854	-0.946199
O	3.461669	5.357251	-3.464862
O	5.355930	3.464854	-3.464862
O	5.666073	5.670384	-1.259332
O	9.764727	5.357251	-0.946199
O	5.666073	7.562772	-3.151719
O	7.560324	7.562772	-1.259332
O	7.560323	5.670384	-3.151719
La	-4.408799	0.000000	-4.411052
La	-2.204396	-2.205530	-6.616583
Li	-5.510996	-1.102765	-7.719338
Li	1.102195	-1.102765	-5.513818
Li	-3.306602	1.102765	-7.719338
Li	-1.102199	1.102765	-5.513818
O	-0.947132	-0.946199	-5.357251
O	-5.355930	0.946199	-7.875914
O	-3.461669	-0.946199	-7.875914
O	-3.151526	1.259332	-5.670384
O	0.947129	0.946199	-5.357251
O	-3.151526	3.151719	-7.562772
O	-1.257275	3.151719	-5.670384
O	-1.257275	1.259332	-7.562772
La	0.000000	4.411052	-4.411052
La	2.204404	2.205522	-6.616583
Li	-1.102197	3.308287	-7.719338
Li	5.510995	3.308287	-5.513818
Li	1.102197	5.513818	-7.719338
Li	3.306601	5.513818	-5.513818
O	3.461667	3.464854	-5.357251
O	-0.947130	5.357251	-7.875914
O	0.947130	3.464854	-7.875914
O	1.257273	5.670384	-5.670384
O	5.355928	5.357251	-5.357251
O	1.257273	7.562772	-7.562772
O	3.151524	7.562772	-5.670384
O	3.151524	5.670384	-7.562772
La	4.408799	-4.411052	0.000000
La	6.613203	-6.616583	-2.205530
Li	3.306602	-5.513818	-3.308286
Li	9.919794	-5.513818	-1.102765
Li	5.510996	-3.308287	-3.308286
Li	7.715400	-3.308287	-1.102765
O	7.870466	-5.357251	-0.946199
O	3.461669	-3.464854	-3.464862
O	5.355930	-5.357251	-3.464862
O	5.666073	-3.151721	-1.259332
O	9.764727	-3.464854	-0.946199
O	5.666073	-1.259333	-3.151719
O	7.560324	-1.259333	-1.259332
O	7.560323	-3.151721	-3.151719
La	8.817599	0.000000	0.000000
La	11.022002	-2.205530	-2.205530
Li	7.715402	-1.102765	-3.308286
Li	14.328593	-1.102765	-1.102765
Li	9.919795	1.102765	-3.308286
Li	12.124199	1.102765	-1.102765
O	12.279266	-0.946199	-0.946199
O	7.870468	0.946199	-3.464862
O	9.764729	-0.946199	-3.464862
O	10.074872	1.259332	-1.259332
O	14.173526	0.946199	-0.946199
O	10.074872	3.151719	-3.151719
O	11.969123	3.151719	-1.259332
O	11.969123	1.259332	-3.151719
La	0.000000	-4.411052	-4.411052
La	2.204404	-6.616583	-6.616583
Li	-1.102197	-5.513818	-7.719338
Li	5.510995	-5.513818	-5.513818
Li	1.102197	-3.308287	-7.719338
Li	3.306601	-3.308287	-5.513818
O	3.461667	-5.357251	-5.357251
O	-0.947130	-3.464854	-7.875914
O	0.947130	-5.357251	-7.875914
O	1.257273	-3.151721	-5.670384
O	5.355928	-3.464854	-5.357251
O	1.257273	-1.259333	-7.562772
O	3.151524	-1.259333	-5.670384
O	3.151524	-3.151721	-7.562772
La	4.408799	0.000000	-4.411052
La	6.613203	-2.205530	-6.616583
Li	3.306602	-1.102765	-7.719338
Li	9.919794	-1.102765	-5.513818
Li	5.510996	1.102765	-7.719338
Li	7.715400	1.102765	-5.513818
O	7.870466	-0.946199	-5.357251
O	3.461669	0.946199	-7.875914
O	5.355930	-0.946199	-7.875914
O	5.666073	1.259332	-5.670384
O	9.764727	0.946199	-5.357251
O	5.666073	3.151719	-7.562772
O	7.560324	3.151719	-5.670384
O	7.560323	1.259332	-7.562772
