112

Mn	0.000000	0.000000	0.000000
Mn	2.392003	-2.389551	-2.389551
O	3.575608	-1.206332	-1.206332
O	-1.208398	1.206332	-3.572770
O	1.208398	-1.206332	-3.572770
O	1.183605	1.183219	-1.183219
O	5.992403	1.206332	-1.206332
O	1.183605	3.595884	-3.595884
O	3.600400	3.595884	-1.183219
O	3.600400	1.183219	-3.595884
Pb	-1.196001	-1.194776	-3.584327
Pb	3.588004	1.194776	-1.194776
Pb	5.980007	-1.194776	-1.194776
Pb	1.196001	1.194776	-3.584327
Mn	4.784005	4.779103	0.000000
Mn	7.176008	2.389551	-2.389551
O	8.359613	3.572770	-1.206332
O	3.575608	5.985435	-3.572770
O	5.992403	3.572770	-3.572770
O	5.967610	5.962322	-1.183219
O	10.776408	5.985435	-1.206332
O	5.967610	8.374986	-3.595884
O	8.384406	8.374986	-1.183219
O	8.384406	5.962322	-3.595884
Pb	3.588004	3.584327	-3.584327
Pb	8.372009	5.973878	-1.194776
Pb	10.764012	3.584327	-1.194776
Pb	5.980007	5.973878	-3.584327
Mn	-4.784005	0.000000	-4.779103
Mn	-2.392003	-2.389551	-7.168654
O	-1.208398	-1.206332	-5.985435
O	-5.992403	1.206332	-8.351873
O	-3.575608	-1.206332	-8.351873
O	-3.600400	1.183219	-5.962322
O	1.208398	1.206332	-5.985435
O	-3.600400	3.595884	-8.374986
O	-1.183605	3.595884	-5.962322
O	-1.183605	1.183219	-8.374986
Pb	-5.980007	-1.194776	-8.363430
Pb	-1.196001	1.194776	-5.973878
Pb	1.196001	-1.194776	-5.973878
Pb	-3.588004	1.194776	-8.363430
Mn	0.000000	4.779103	-4.779103
Mn	2.392003	2.389551	-7.168654
O	3.575608	3.572770	-5.985435
O	-1.208398	5.985435	-8.351873
O	1.208398	3.572770	-8.351873
O	1.183605	5.962322	-5.962322
O	5.992403	5.985435	-5.985435
O	1.183605	8.374986	-8.374986
O	3.600400	8.374986	-5.962322
O	3.600400	5.962322	-8.374986
Pb	-1.196001	3.584327	-8.363430
Pb	3.588004	5.973878	-5.973878
Pb	5.980007	3.584327	-5.973878
Pb	1.196001	5.973878	-8.363430
Mn	4.784005	-4.779103	0.000000
Mn	7.176008	-7.168654	-2.389551
O	8.359613	-5.985435	-1.206332
O	3.575608	-3.572770	-3.572770
O	5.992403	-5.985435	-3.572770
O	5.967610	-3.595884	-1.183219
O	10.776408	-3.572770	-1.206332
O	5.967610	-1.183219	-3.595884
O	8.384406	-1.183219	-1.183219
O	8.384406	-3.595884	-3.595884
Pb	3.588004	-5.973878	-3.584327
Pb	8.372009	-3.584327	-1.194776
Pb	10.764012	-5.973878	-1.194776
Pb	5.980007	-3.584327	-3.584327
Mn	9.568011	0.000000	0.000000
Mn	11.960013	-2.389551	-2.389551
O	13.143618	-1.206332	-1.206332
O	8.359613	1.206332	-3.572770
O	10.776408	-1.206332	-3.572770
O	10.751616	1.183219	-1.183219
O	15.560413	1.206332	-1.206332
O	10.751616	3.595884	-3.595884
O	13.168411	3.595884	-1.183219
O	13.168411	1.183219	-3.595884
Pb	8.372009	-1.194776	-3.584327
Pb	13.156014	1.194776	-1.194776
Pb	15.548017	-1.194776	-1.194776
Pb	10.764012	1.194776	-3.584327
Mn	0.000000	-4.779103	-4.779103
Mn	2.392003	-7.168654	-7.168654
O	3.575608	-5.985435	-5.985435
O	-1.208398	-3.572770	-8.351873
O	1.208398	-5.985435	-8.351873
O	1.183605	-3.595884	-5.962322
O	5.992403	-3.572770	-5.985435
O	1.183605	-1.183219	-8.374986
O	3.600400	-1.183219	-5.962322
O	3.600400	-3.595884	-8.374986
Pb	-1.196001	-5.973878	-8.363430
Pb	3.588004	-3.584327	-5.973878
Pb	5.980007	-5.973878	-5.973878
Pb	1.196001	-3.584327	-8.363430
Mn	4.784005	0.000000	-4.779103
Mn	7.176008	-2.389551	-7.168654
O	8.359613	-1.206332	-5.985435
O	3.575608	1.206332	-8.351873
O	5.992403	-1.206332	-8.351873
O	5.967610	1.183219	-5.962322
O	10.776408	1.206332	-5.985435
O	5.967610	3.595884	-8.374986
O	8.384406	3.595884	-5.962322
O	8.384406	1.183219	-8.374986
Pb	3.588004	-1.194776	-8.363430
Pb	8.372009	1.194776	-5.973878
Pb	10.764012	-1.194776	-5.973878
Pb	5.980007	1.194776	-8.363430
