40

B	1.644838	1.644838	1.644838
O	1.644838	1.644838	0.000000
O	0.000000	1.644838	1.644838
O	1.644838	0.000000	1.644838
Ti	0.000000	0.000000	0.000000
B	1.644838	1.644838	4.934521
O	1.644838	1.644838	3.289683
O	0.000000	1.644838	4.934521
O	1.644838	0.000000	4.934521
Ti	0.000000	0.000000	3.289683
B	1.644838	4.934521	1.644838
O	1.644838	4.934521	0.000000
O	0.000000	4.934521	1.644838
O	1.644838	3.289683	1.644838
Ti	0.000000	3.289683	0.000000
B	1.644838	4.934521	4.934521
O	1.644838	4.934521	3.289683
O	0.000000	4.934521	4.934521
O	1.644838	3.289683	4.934521
Ti	0.000000	3.289683	3.289683
B	4.934521	1.644838	1.644838
O	4.934521	1.644838	0.000000
O	3.289683	1.644838	1.644838
O	4.934521	0.000000	1.644838
Ti	3.289683	0.000000	0.000000
B	4.934521	1.644838	4.934521
O	4.934521	1.644838	3.289683
O	3.289683	1.644838	4.934521
O	4.934521	0.000000	4.934521
Ti	3.289683	0.000000	3.289683
B	4.934521	4.934521	1.644838
O	4.934521	4.934521	0.000000
O	3.289683	4.934521	1.644838
O	4.934521	3.289683	1.644838
Ti	3.289683	3.289683	0.000000
B	4.934521	4.934521	4.934521
O	4.934521	4.934521	3.289683
O	3.289683	4.934521	4.934521
O	4.934521	3.289683	4.934521
Ti	3.289683	3.289683	3.289683
