40

Fe	0.000000	0.000000	0.000000
Ir	1.951962	1.951962	1.951962
O	0.000000	1.951962	1.951962
O	1.951962	0.000000	1.951962
O	1.951962	1.951962	0.000000
Fe	0.000000	0.000000	3.903924
Ir	1.951962	1.951962	5.855886
O	0.000000	1.951962	5.855886
O	1.951962	0.000000	5.855886
O	1.951962	1.951962	3.903924
Fe	0.000000	3.903924	0.000000
Ir	1.951962	5.855886	1.951962
O	0.000000	5.855886	1.951962
O	1.951962	3.903924	1.951962
O	1.951962	5.855886	0.000000
Fe	0.000000	3.903924	3.903924
Ir	1.951962	5.855886	5.855886
O	0.000000	5.855886	5.855886
O	1.951962	3.903924	5.855886
O	1.951962	5.855886	3.903924
Fe	3.903924	0.000000	0.000000
Ir	5.855886	1.951962	1.951962
O	3.903924	1.951962	1.951962
O	5.855886	0.000000	1.951962
O	5.855886	1.951962	0.000000
Fe	3.903924	0.000000	3.903924
Ir	5.855886	1.951962	5.855886
O	3.903924	1.951962	5.855886
O	5.855886	0.000000	5.855886
O	5.855886	1.951962	3.903924
Fe	3.903924	3.903924	0.000000
Ir	5.855886	5.855886	1.951962
O	3.903924	5.855886	1.951962
O	5.855886	3.903924	1.951962
O	5.855886	5.855886	0.000000
Fe	3.903924	3.903924	3.903924
Ir	5.855886	5.855886	5.855886
O	3.903924	5.855886	5.855886
O	5.855886	3.903924	5.855886
O	5.855886	5.855886	3.903924
