40

Nd	0.000000	0.000000	0.000000
O	2.106550	2.106550	0.000000
O	0.000000	2.106550	2.106550
O	2.106550	0.000000	2.106550
Tm	2.106550	2.106550	2.106550
Nd	0.000000	0.000000	4.213096
O	2.106550	2.106550	4.213096
O	0.000000	2.106550	6.319646
O	2.106550	0.000000	6.319646
Tm	2.106550	2.106550	6.319646
Nd	0.000000	4.213096	0.000000
O	2.106550	6.319646	0.000000
O	0.000000	6.319646	2.106550
O	2.106550	4.213096	2.106550
Tm	2.106550	6.319646	2.106550
Nd	0.000000	4.213096	4.213096
O	2.106550	6.319646	4.213096
O	0.000000	6.319646	6.319646
O	2.106550	4.213096	6.319646
Tm	2.106550	6.319646	6.319646
Nd	4.213096	0.000000	0.000000
O	6.319646	2.106550	0.000000
O	4.213096	2.106550	2.106550
O	6.319646	0.000000	2.106550
Tm	6.319646	2.106550	2.106550
Nd	4.213096	0.000000	4.213096
O	6.319646	2.106550	4.213096
O	4.213096	2.106550	6.319646
O	6.319646	0.000000	6.319646
Tm	6.319646	2.106550	6.319646
Nd	4.213096	4.213096	0.000000
O	6.319646	6.319646	0.000000
O	4.213096	6.319646	2.106550
O	6.319646	4.213096	2.106550
Tm	6.319646	6.319646	2.106550
Nd	4.213096	4.213096	4.213096
O	6.319646	6.319646	4.213096
O	4.213096	6.319646	6.319646
O	6.319646	4.213096	6.319646
Tm	6.319646	6.319646	6.319646
