40

Hg	2.067368	2.067368	2.067368
O	2.067368	2.067368	0.000000
O	0.000000	2.067368	2.067368
O	2.067368	0.000000	2.067368
W	0.000000	0.000000	0.000000
Hg	2.067368	2.067368	6.202103
O	2.067368	2.067368	4.134735
O	0.000000	2.067368	6.202103
O	2.067368	0.000000	6.202103
W	0.000000	0.000000	4.134735
Hg	2.067368	6.202103	2.067368
O	2.067368	6.202103	0.000000
O	0.000000	6.202103	2.067368
O	2.067368	4.134735	2.067368
W	0.000000	4.134735	0.000000
Hg	2.067368	6.202103	6.202103
O	2.067368	6.202103	4.134735
O	0.000000	6.202103	6.202103
O	2.067368	4.134735	6.202103
W	0.000000	4.134735	4.134735
Hg	6.202103	2.067368	2.067368
O	6.202103	2.067368	0.000000
O	4.134735	2.067368	2.067368
O	6.202103	0.000000	2.067368
W	4.134735	0.000000	0.000000
Hg	6.202103	2.067368	6.202103
O	6.202103	2.067368	4.134735
O	4.134735	2.067368	6.202103
O	6.202103	0.000000	6.202103
W	4.134735	0.000000	4.134735
Hg	6.202103	6.202103	2.067368
O	6.202103	6.202103	0.000000
O	4.134735	6.202103	2.067368
O	6.202103	4.134735	2.067368
W	4.134735	4.134735	0.000000
Hg	6.202103	6.202103	6.202103
O	6.202103	6.202103	4.134735
O	4.134735	6.202103	6.202103
O	6.202103	4.134735	6.202103
W	4.134735	4.134735	4.134735
