40

Au	0.000000	0.000000	0.000000
O	0.000000	1.821774	1.821774
O	1.821774	0.000000	1.821774
O	1.821774	1.821774	0.000000
Si	1.821774	1.821774	1.821774
Au	0.000000	0.000000	3.643548
O	0.000000	1.821774	5.465322
O	1.821774	0.000000	5.465322
O	1.821774	1.821774	3.643548
Si	1.821774	1.821774	5.465322
Au	0.000000	3.643548	0.000000
O	0.000000	5.465322	1.821774
O	1.821774	3.643548	1.821774
O	1.821774	5.465322	0.000000
Si	1.821774	5.465322	1.821774
Au	0.000000	3.643548	3.643548
O	0.000000	5.465322	5.465322
O	1.821774	3.643548	5.465322
O	1.821774	5.465322	3.643548
Si	1.821774	5.465322	5.465322
Au	3.643548	0.000000	0.000000
O	3.643548	1.821774	1.821774
O	5.465322	0.000000	1.821774
O	5.465322	1.821774	0.000000
Si	5.465322	1.821774	1.821774
Au	3.643548	0.000000	3.643548
O	3.643548	1.821774	5.465322
O	5.465322	0.000000	5.465322
O	5.465322	1.821774	3.643548
Si	5.465322	1.821774	5.465322
Au	3.643548	3.643548	0.000000
O	3.643548	5.465322	1.821774
O	5.465322	3.643548	1.821774
O	5.465322	5.465322	0.000000
Si	5.465322	5.465322	1.821774
Au	3.643548	3.643548	3.643548
O	3.643548	5.465322	5.465322
O	5.465322	3.643548	5.465322
O	5.465322	5.465322	3.643548
Si	5.465322	5.465322	5.465322
