40

O	0.000000	2.165252	0.000000
O	0.000000	0.000000	2.165252
O	2.165252	0.000000	0.000000
K	2.165252	2.165252	2.165252
U	0.000000	0.000000	0.000000
O	0.000000	2.165252	4.330504
O	0.000000	0.000000	6.495756
O	2.165252	0.000000	4.330504
K	2.165252	2.165252	6.495756
U	0.000000	0.000000	4.330504
O	0.000000	6.495756	0.000000
O	0.000000	4.330504	2.165252
O	2.165252	4.330504	0.000000
K	2.165252	6.495756	2.165252
U	0.000000	4.330504	0.000000
O	0.000000	6.495756	4.330504
O	0.000000	4.330504	6.495756
O	2.165252	4.330504	4.330504
K	2.165252	6.495756	6.495756
U	0.000000	4.330504	4.330504
O	4.330504	2.165252	0.000000
O	4.330504	0.000000	2.165252
O	6.495756	0.000000	0.000000
K	6.495756	2.165252	2.165252
U	4.330504	0.000000	0.000000
O	4.330504	2.165252	4.330504
O	4.330504	0.000000	6.495756
O	6.495756	0.000000	4.330504
K	6.495756	2.165252	6.495756
U	4.330504	0.000000	4.330504
O	4.330504	6.495756	0.000000
O	4.330504	4.330504	2.165252
O	6.495756	4.330504	0.000000
K	6.495756	6.495756	2.165252
U	4.330504	4.330504	0.000000
O	4.330504	6.495756	4.330504
O	4.330504	4.330504	6.495756
O	6.495756	4.330504	4.330504
K	6.495756	6.495756	6.495756
U	4.330504	4.330504	4.330504
