112

Mg	0.000000	0.000000	0.000000
Mg	2.182301	-2.182736	-2.182736
Nb	-1.091150	-1.091368	-3.274104
Nb	3.273451	1.091368	-1.091368
Nb	5.455751	-1.091368	-1.091368
Nb	1.091150	1.091368	-3.274104
O	3.281849	-1.082511	-1.082511
O	-1.082752	1.082511	-3.282962
O	1.082752	-1.082511	-3.282962
O	1.099548	1.100225	-1.100225
O	5.447353	1.082511	-1.082511
O	1.099548	3.265247	-3.265247
O	3.265053	3.265247	-1.100225
O	3.265053	1.100225	-3.265247
Mg	4.364601	4.365472	0.000000
Mg	6.546902	2.182736	-2.182736
Nb	3.273451	3.274104	-3.274104
Nb	7.638052	5.456840	-1.091368
Nb	9.820352	3.274104	-1.091368
Nb	5.455751	5.456840	-3.274104
O	7.646450	3.282962	-1.082511
O	3.281849	5.447983	-3.282962
O	5.447353	3.282962	-3.282962
O	5.464150	5.465698	-1.100225
O	9.811954	5.447983	-1.082511
O	5.464149	7.630719	-3.265247
O	7.629654	7.630719	-1.100225
O	7.629654	5.465698	-3.265247
Mg	-4.364601	0.000000	-4.365472
Mg	-2.182301	-2.182736	-6.548208
Nb	-5.455751	-1.091368	-7.639576
Nb	-1.091150	1.091368	-5.456840
Nb	1.091150	-1.091368	-5.456840
Nb	-3.273451	1.091368	-7.639576
O	-1.082752	-1.082511	-5.447983
O	-5.447353	1.082511	-7.648434
O	-3.281849	-1.082511	-7.648434
O	-3.265053	1.100225	-5.465698
O	1.082752	1.082511	-5.447983
O	-3.265053	3.265247	-7.630719
O	-1.099548	3.265247	-5.465698
O	-1.099548	1.100225	-7.630719
Mg	0.000000	4.365472	-4.365472
Mg	2.182301	2.182736	-6.548208
Nb	-1.091150	3.274104	-7.639576
Nb	3.273451	5.456840	-5.456840
Nb	5.455751	3.274104	-5.456840
Nb	1.091150	5.456840	-7.639576
O	3.281849	3.282962	-5.447983
O	-1.082752	5.447983	-7.648434
O	1.082752	3.282962	-7.648434
O	1.099548	5.465698	-5.465698
O	5.447353	5.447983	-5.447983
O	1.099548	7.630719	-7.630719
O	3.265053	7.630719	-5.465698
O	3.265053	5.465698	-7.630719
Mg	4.364601	-4.365472	0.000000
Mg	6.546902	-6.548208	-2.182736
Nb	3.273451	-5.456840	-3.274104
Nb	7.638052	-3.274104	-1.091368
Nb	9.820352	-5.456840	-1.091368
Nb	5.455751	-3.274104	-3.274104
O	7.646450	-5.447983	-1.082511
O	3.281849	-3.282962	-3.282962
O	5.447353	-5.447983	-3.282962
O	5.464150	-3.265247	-1.100225
O	9.811954	-3.282962	-1.082511
O	5.464149	-1.100225	-3.265247
O	7.629654	-1.100225	-1.100225
O	7.629654	-3.265247	-3.265247
Mg	8.729202	0.000000	0.000000
Mg	10.911503	-2.182736	-2.182736
Nb	7.638052	-1.091368	-3.274104
Nb	12.002653	1.091368	-1.091368
Nb	14.184953	-1.091368	-1.091368
Nb	9.820352	1.091368	-3.274104
O	12.011051	-1.082511	-1.082511
O	7.646450	1.082511	-3.282962
O	9.811954	-1.082511	-3.282962
O	9.828751	1.100225	-1.100225
O	14.176555	1.082511	-1.082511
O	9.828750	3.265247	-3.265247
O	11.994255	3.265247	-1.100225
O	11.994255	1.100225	-3.265247
Mg	0.000000	-4.365472	-4.365472
Mg	2.182301	-6.548208	-6.548208
Nb	-1.091150	-5.456840	-7.639576
Nb	3.273451	-3.274104	-5.456840
Nb	5.455751	-5.456840	-5.456840
Nb	1.091150	-3.274104	-7.639576
O	3.281849	-5.447983	-5.447983
O	-1.082752	-3.282962	-7.648434
O	1.082752	-5.447983	-7.648434
O	1.099548	-3.265247	-5.465698
O	5.447353	-3.282962	-5.447983
O	1.099548	-1.100225	-7.630719
O	3.265053	-1.100225	-5.465698
O	3.265053	-3.265247	-7.630719
Mg	4.364601	0.000000	-4.365472
Mg	6.546902	-2.182736	-6.548208
Nb	3.273451	-1.091368	-7.639576
Nb	7.638052	1.091368	-5.456840
Nb	9.820352	-1.091368	-5.456840
Nb	5.455751	1.091368	-7.639576
O	7.646450	-1.082511	-5.447983
O	3.281849	1.082511	-7.648434
O	5.447353	-1.082511	-7.648434
O	5.464150	1.100225	-5.465698
O	9.811954	1.082511	-5.447983
O	5.464149	3.265247	-7.630719
O	7.629654	3.265247	-5.465698
O	7.629654	1.100225	-7.630719
