40

O	0.000000	1.992437	1.992437
O	1.992437	1.992437	0.000000
O	1.992437	0.000000	1.992437
Sr	0.000000	0.000000	0.000000
Ru	1.992437	1.992437	1.992437
O	0.000000	1.992437	5.977311
O	1.992437	1.992437	3.984874
O	1.992437	0.000000	5.977311
Sr	0.000000	0.000000	3.984874
Ru	1.992437	1.992437	5.977311
O	0.000000	5.977311	1.992437
O	1.992437	5.977311	0.000000
O	1.992437	3.984874	1.992437
Sr	0.000000	3.984874	0.000000
Ru	1.992437	5.977311	1.992437
O	0.000000	5.977311	5.977311
O	1.992437	5.977311	3.984874
O	1.992437	3.984874	5.977311
Sr	0.000000	3.984874	3.984874
Ru	1.992437	5.977311	5.977311
O	3.984874	1.992437	1.992437
O	5.977311	1.992437	0.000000
O	5.977311	0.000000	1.992437
Sr	3.984874	0.000000	0.000000
Ru	5.977311	1.992437	1.992437
O	3.984874	1.992437	5.977311
O	5.977311	1.992437	3.984874
O	5.977311	0.000000	5.977311
Sr	3.984874	0.000000	3.984874
Ru	5.977311	1.992437	5.977311
O	3.984874	5.977311	1.992437
O	5.977311	5.977311	0.000000
O	5.977311	3.984874	1.992437
Sr	3.984874	3.984874	0.000000
Ru	5.977311	5.977311	1.992437
O	3.984874	5.977311	5.977311
O	5.977311	5.977311	3.984874
O	5.977311	3.984874	5.977311
Sr	3.984874	3.984874	3.984874
Ru	5.977311	5.977311	5.977311
