40

Ba	0.000000	0.000000	0.000000
O	0.000000	2.041911	2.041911
O	2.041911	0.000000	2.041911
O	2.041911	2.041911	0.000000
Rh	2.041911	2.041911	2.041911
Ba	0.000000	0.000000	4.083822
O	0.000000	2.041911	6.125732
O	2.041911	0.000000	6.125732
O	2.041911	2.041911	4.083822
Rh	2.041911	2.041911	6.125732
Ba	0.000000	4.083822	0.000000
O	0.000000	6.125732	2.041911
O	2.041911	4.083822	2.041911
O	2.041911	6.125732	0.000000
Rh	2.041911	6.125732	2.041911
Ba	0.000000	4.083822	4.083822
O	0.000000	6.125732	6.125732
O	2.041911	4.083822	6.125732
O	2.041911	6.125732	4.083822
Rh	2.041911	6.125732	6.125732
Ba	4.083822	0.000000	0.000000
O	4.083822	2.041911	2.041911
O	6.125732	0.000000	2.041911
O	6.125732	2.041911	0.000000
Rh	6.125732	2.041911	2.041911
Ba	4.083822	0.000000	4.083822
O	4.083822	2.041911	6.125732
O	6.125732	0.000000	6.125732
O	6.125732	2.041911	4.083822
Rh	6.125732	2.041911	6.125732
Ba	4.083822	4.083822	0.000000
O	4.083822	6.125732	2.041911
O	6.125732	4.083822	2.041911
O	6.125732	6.125732	0.000000
Rh	6.125732	6.125732	2.041911
Ba	4.083822	4.083822	4.083822
O	4.083822	6.125732	6.125732
O	6.125732	4.083822	6.125732
O	6.125732	6.125732	4.083822
Rh	6.125732	6.125732	6.125732
