40

O	0.000000	1.957029	1.957029
O	1.957029	0.000000	1.957029
O	1.957029	1.957029	0.000000
Os	1.957029	1.957029	1.957029
P	0.000000	0.000000	0.000000
O	0.000000	1.957029	5.871088
O	1.957029	0.000000	5.871088
O	1.957029	1.957029	3.914059
Os	1.957029	1.957029	5.871088
P	0.000000	0.000000	3.914059
O	0.000000	5.871088	1.957029
O	1.957029	3.914059	1.957029
O	1.957029	5.871088	0.000000
Os	1.957029	5.871088	1.957029
P	0.000000	3.914059	0.000000
O	0.000000	5.871088	5.871088
O	1.957029	3.914059	5.871088
O	1.957029	5.871088	3.914059
Os	1.957029	5.871088	5.871088
P	0.000000	3.914059	3.914059
O	3.914059	1.957029	1.957029
O	5.871088	0.000000	1.957029
O	5.871088	1.957029	0.000000
Os	5.871088	1.957029	1.957029
P	3.914059	0.000000	0.000000
O	3.914059	1.957029	5.871088
O	5.871088	0.000000	5.871088
O	5.871088	1.957029	3.914059
Os	5.871088	1.957029	5.871088
P	3.914059	0.000000	3.914059
O	3.914059	5.871088	1.957029
O	5.871088	3.914059	1.957029
O	5.871088	5.871088	0.000000
Os	5.871088	5.871088	1.957029
P	3.914059	3.914059	0.000000
O	3.914059	5.871088	5.871088
O	5.871088	3.914059	5.871088
O	5.871088	5.871088	3.914059
Os	5.871088	5.871088	5.871088
P	3.914059	3.914059	3.914059
