40

Ga	1.912443	1.912443	1.912443
O	0.000000	1.912443	1.912443
O	1.912443	0.000000	1.912443
O	1.912443	1.912443	0.000000
Y	0.000000	0.000000	0.000000
Ga	1.912443	1.912443	5.737330
O	0.000000	1.912443	5.737330
O	1.912443	0.000000	5.737330
O	1.912443	1.912443	3.824887
Y	0.000000	0.000000	3.824887
Ga	1.912443	5.737330	1.912443
O	0.000000	5.737330	1.912443
O	1.912443	3.824887	1.912443
O	1.912443	5.737330	0.000000
Y	0.000000	3.824887	0.000000
Ga	1.912443	5.737330	5.737330
O	0.000000	5.737330	5.737330
O	1.912443	3.824887	5.737330
O	1.912443	5.737330	3.824887
Y	0.000000	3.824887	3.824887
Ga	5.737330	1.912443	1.912443
O	3.824887	1.912443	1.912443
O	5.737330	0.000000	1.912443
O	5.737330	1.912443	0.000000
Y	3.824887	0.000000	0.000000
Ga	5.737330	1.912443	5.737330
O	3.824887	1.912443	5.737330
O	5.737330	0.000000	5.737330
O	5.737330	1.912443	3.824887
Y	3.824887	0.000000	3.824887
Ga	5.737330	5.737330	1.912443
O	3.824887	5.737330	1.912443
O	5.737330	3.824887	1.912443
O	5.737330	5.737330	0.000000
Y	3.824887	3.824887	0.000000
Ga	5.737330	5.737330	5.737330
O	3.824887	5.737330	5.737330
O	5.737330	3.824887	5.737330
O	5.737330	5.737330	3.824887
Y	3.824887	3.824887	3.824887
