40

Cu	0.000000	0.000000	0.000000
O	0.000000	2.079294	2.079294
O	2.079294	0.000000	2.079294
O	2.079294	2.079294	0.000000
Zr	2.079294	2.079294	2.079294
Cu	0.000000	0.000000	4.158588
O	0.000000	2.079294	6.237883
O	2.079294	0.000000	6.237883
O	2.079294	2.079294	4.158588
Zr	2.079294	2.079294	6.237883
Cu	0.000000	4.158588	0.000000
O	0.000000	6.237883	2.079294
O	2.079294	4.158588	2.079294
O	2.079294	6.237883	0.000000
Zr	2.079294	6.237883	2.079294
Cu	0.000000	4.158588	4.158588
O	0.000000	6.237883	6.237883
O	2.079294	4.158588	6.237883
O	2.079294	6.237883	4.158588
Zr	2.079294	6.237883	6.237883
Cu	4.158588	0.000000	0.000000
O	4.158588	2.079294	2.079294
O	6.237883	0.000000	2.079294
O	6.237883	2.079294	0.000000
Zr	6.237883	2.079294	2.079294
Cu	4.158588	0.000000	4.158588
O	4.158588	2.079294	6.237883
O	6.237883	0.000000	6.237883
O	6.237883	2.079294	4.158588
Zr	6.237883	2.079294	6.237883
Cu	4.158588	4.158588	0.000000
O	4.158588	6.237883	2.079294
O	6.237883	4.158588	2.079294
O	6.237883	6.237883	0.000000
Zr	6.237883	6.237883	2.079294
Cu	4.158588	4.158588	4.158588
O	4.158588	6.237883	6.237883
O	6.237883	4.158588	6.237883
O	6.237883	6.237883	4.158588
Zr	6.237883	6.237883	6.237883
