40

Cu	0.000000	0.000000	0.000000
O	2.063730	2.063730	0.000000
O	2.063730	0.000000	2.063730
O	0.000000	2.063730	2.063730
Zr	2.063730	2.063730	2.063730
Cu	0.000000	0.000000	4.127455
O	2.063730	2.063730	4.127455
O	2.063730	0.000000	6.191184
O	0.000000	2.063730	6.191184
Zr	2.063730	2.063730	6.191184
Cu	0.000000	4.127455	0.000000
O	2.063730	6.191184	0.000000
O	2.063730	4.127455	2.063730
O	0.000000	6.191184	2.063730
Zr	2.063730	6.191184	2.063730
Cu	0.000000	4.127455	4.127455
O	2.063730	6.191184	4.127455
O	2.063730	4.127455	6.191184
O	0.000000	6.191184	6.191184
Zr	2.063730	6.191184	6.191184
Cu	4.127455	0.000000	0.000000
O	6.191184	2.063730	0.000000
O	6.191184	0.000000	2.063730
O	4.127455	2.063730	2.063730
Zr	6.191184	2.063730	2.063730
Cu	4.127455	0.000000	4.127455
O	6.191184	2.063730	4.127455
O	6.191184	0.000000	6.191184
O	4.127455	2.063730	6.191184
Zr	6.191184	2.063730	6.191184
Cu	4.127455	4.127455	0.000000
O	6.191184	6.191184	0.000000
O	6.191184	4.127455	2.063730
O	4.127455	6.191184	2.063730
Zr	6.191184	6.191184	2.063730
Cu	4.127455	4.127455	4.127455
O	6.191184	6.191184	4.127455
O	6.191184	4.127455	6.191184
O	4.127455	6.191184	6.191184
Zr	6.191184	6.191184	6.191184
