40

B	0.000000	0.000000	0.000000
O	0.000000	2.023387	2.023387
O	2.023387	0.000000	2.023387
O	2.023387	2.023387	0.000000
Te	2.023387	2.023387	2.023387
B	0.000000	0.000000	4.046775
O	0.000000	2.023387	6.070162
O	2.023387	0.000000	6.070162
O	2.023387	2.023387	4.046775
Te	2.023387	2.023387	6.070162
B	0.000000	4.046775	0.000000
O	0.000000	6.070162	2.023387
O	2.023387	4.046775	2.023387
O	2.023387	6.070162	0.000000
Te	2.023387	6.070162	2.023387
B	0.000000	4.046775	4.046775
O	0.000000	6.070162	6.070162
O	2.023387	4.046775	6.070162
O	2.023387	6.070162	4.046775
Te	2.023387	6.070162	6.070162
B	4.046775	0.000000	0.000000
O	4.046775	2.023387	2.023387
O	6.070162	0.000000	2.023387
O	6.070162	2.023387	0.000000
Te	6.070162	2.023387	2.023387
B	4.046775	0.000000	4.046775
O	4.046775	2.023387	6.070162
O	6.070162	0.000000	6.070162
O	6.070162	2.023387	4.046775
Te	6.070162	2.023387	6.070162
B	4.046775	4.046775	0.000000
O	4.046775	6.070162	2.023387
O	6.070162	4.046775	2.023387
O	6.070162	6.070162	0.000000
Te	6.070162	6.070162	2.023387
B	4.046775	4.046775	4.046775
O	4.046775	6.070162	6.070162
O	6.070162	4.046775	6.070162
O	6.070162	6.070162	4.046775
Te	6.070162	6.070162	6.070162
