40

O	1.969520	1.969520	0.000000
O	0.000000	1.969520	1.969520
O	1.969520	0.000000	1.969520
Re	0.000000	0.000000	0.000000
W_pv	1.969520	1.969520	1.969520
O	1.969520	1.969520	3.939049
O	0.000000	1.969520	5.908569
O	1.969520	0.000000	5.908569
Re	0.000000	0.000000	3.939049
W_pv	1.969520	1.969520	5.908569
O	1.969520	5.908569	0.000000
O	0.000000	5.908569	1.969520
O	1.969520	3.939049	1.969520
Re	0.000000	3.939049	0.000000
W_pv	1.969520	5.908569	1.969520
O	1.969520	5.908569	3.939049
O	0.000000	5.908569	5.908569
O	1.969520	3.939049	5.908569
Re	0.000000	3.939049	3.939049
W_pv	1.969520	5.908569	5.908569
O	5.908569	1.969520	0.000000
O	3.939049	1.969520	1.969520
O	5.908569	0.000000	1.969520
Re	3.939049	0.000000	0.000000
W_pv	5.908569	1.969520	1.969520
O	5.908569	1.969520	3.939049
O	3.939049	1.969520	5.908569
O	5.908569	0.000000	5.908569
Re	3.939049	0.000000	3.939049
W_pv	5.908569	1.969520	5.908569
O	5.908569	5.908569	0.000000
O	3.939049	5.908569	1.969520
O	5.908569	3.939049	1.969520
Re	3.939049	3.939049	0.000000
W_pv	5.908569	5.908569	1.969520
O	5.908569	5.908569	3.939049
O	3.939049	5.908569	5.908569
O	5.908569	3.939049	5.908569
Re	3.939049	3.939049	3.939049
W_pv	5.908569	5.908569	5.908569
