40

O	0.000000	1.972166	1.972166
O	1.972166	0.000000	1.972166
O	1.972166	1.972166	0.000000
Rh	0.000000	0.000000	0.000000
W	1.972166	1.972166	1.972166
O	0.000000	1.972166	5.916499
O	1.972166	0.000000	5.916499
O	1.972166	1.972166	3.944332
Rh	0.000000	0.000000	3.944332
W	1.972166	1.972166	5.916499
O	0.000000	5.916499	1.972166
O	1.972166	3.944332	1.972166
O	1.972166	5.916499	0.000000
Rh	0.000000	3.944332	0.000000
W	1.972166	5.916499	1.972166
O	0.000000	5.916499	5.916499
O	1.972166	3.944332	5.916499
O	1.972166	5.916499	3.944332
Rh	0.000000	3.944332	3.944332
W	1.972166	5.916499	5.916499
O	3.944332	1.972166	1.972166
O	5.916499	0.000000	1.972166
O	5.916499	1.972166	0.000000
Rh	3.944332	0.000000	0.000000
W	5.916499	1.972166	1.972166
O	3.944332	1.972166	5.916499
O	5.916499	0.000000	5.916499
O	5.916499	1.972166	3.944332
Rh	3.944332	0.000000	3.944332
W	5.916499	1.972166	5.916499
O	3.944332	5.916499	1.972166
O	5.916499	3.944332	1.972166
O	5.916499	5.916499	0.000000
Rh	3.944332	3.944332	0.000000
W	5.916499	5.916499	1.972166
O	3.944332	5.916499	5.916499
O	5.916499	3.944332	5.916499
O	5.916499	5.916499	3.944332
Rh	3.944332	3.944332	3.944332
W	5.916499	5.916499	5.916499
