112

Dy	0.923305	0.652883	1.599218
Dy	6.463169	4.570150	11.194524
Mn	2.769926	-0.000000	4.797653
Mn	6.463156	2.611511	7.996092
Mn	3.693230	2.611511	3.198439
Mn	3.693230	2.611511	6.396867
O	5.444328	3.849725	9.429846
O	1.942140	1.373308	6.231408
O	2.769928	3.714631	4.797656
O	4.425493	1.373308	4.797656
O	4.616546	1.508403	7.996085
O	2.960981	3.849725	7.996085
O	1.942140	1.373308	3.363885
O	5.444328	3.849725	6.562330
Dy	0.923305	0.652883	7.996088
Dy	6.463169	4.570150	17.591394
Mn	2.769926	-0.000000	11.194523
Mn	6.463156	2.611511	14.392962
Mn	3.693230	2.611511	9.595309
Mn	3.693230	2.611511	12.793738
O	5.444328	3.849725	15.826717
O	1.942140	1.373308	12.628278
O	2.769928	3.714631	11.194526
O	4.425493	1.373308	11.194526
O	4.616546	1.508403	14.392955
O	2.960981	3.849725	14.392955
O	1.942140	1.373308	9.760755
O	5.444328	3.849725	12.959201
Dy	2.769923	5.875906	4.797653
Dy	8.309787	9.793173	14.392959
Mn	4.616544	5.223023	7.996088
Mn	8.309774	7.834534	11.194527
Mn	5.539847	7.834534	6.396874
Mn	5.539847	7.834534	9.595303
O	7.290946	9.072748	12.628282
O	3.788758	6.596331	9.429843
O	4.616546	8.937653	7.996092
O	6.272111	6.596331	7.996092
O	6.463163	6.731426	11.194521
O	4.807599	9.072748	11.194521
O	3.788758	6.596331	6.562321
O	7.290946	9.072748	9.760766
Dy	2.769923	5.875906	11.194523
Dy	8.309787	9.793173	20.789829
Mn	4.616544	5.223023	14.392959
Mn	8.309774	7.834534	17.591397
Mn	5.539847	7.834534	12.793744
Mn	5.539847	7.834534	15.992173
O	7.290946	9.072748	19.025152
O	3.788758	6.596331	15.826713
O	4.616546	8.937653	14.392962
O	6.272111	6.596331	14.392962
O	6.463163	6.731425	17.591391
O	4.807599	9.072748	17.591391
O	3.788758	6.596331	12.959191
O	7.290946	9.072748	16.157636
Dy	6.463158	0.652883	4.797653
Dy	12.003021	4.570150	14.392959
Mn	8.309779	-0.000000	7.996088
Mn	12.003008	2.611511	11.194527
Mn	9.233082	2.611511	6.396874
Mn	9.233082	2.611511	9.595303
O	10.984181	3.849725	12.628282
O	7.481993	1.373308	9.429843
O	8.309781	3.714631	7.996092
O	9.965346	1.373308	7.996092
O	10.156398	1.508403	11.194521
O	8.500833	3.849725	11.194521
O	7.481993	1.373308	6.562321
O	10.984181	3.849725	9.760766
Dy	6.463158	0.652883	11.194523
Dy	12.003021	4.570150	20.789829
Mn	8.309779	-0.000000	14.392959
Mn	12.003008	2.611511	17.591397
Mn	9.233082	2.611511	12.793744
Mn	9.233082	2.611511	15.992173
O	10.984181	3.849725	19.025152
O	7.481993	1.373308	15.826713
O	8.309781	3.714630	14.392962
O	9.965346	1.373308	14.392962
O	10.156398	1.508403	17.591391
O	8.500833	3.849725	17.591391
O	7.481993	1.373308	12.959191
O	10.984181	3.849725	16.157636
Dy	8.309775	5.875906	7.996089
Dy	13.849639	9.793173	17.591395
Mn	10.156396	5.223023	11.194524
Mn	13.849626	7.834534	14.392963
Mn	11.079700	7.834534	9.595310
Mn	11.079700	7.834534	12.793738
O	12.830799	9.072748	15.826717
O	9.328610	6.596331	12.628279
O	10.156399	8.937653	11.194527
O	11.811963	6.596331	11.194527
O	12.003016	6.731425	14.392956
O	10.347451	9.072748	14.392956
O	9.328610	6.596331	9.760756
O	12.830799	9.072748	12.959201
Dy	8.309775	5.875906	14.392959
Dy	13.849639	9.793173	23.988265
Mn	10.156396	5.223023	17.591394
Mn	13.849626	7.834534	20.789833
Mn	11.079700	7.834534	15.992180
Mn	11.079700	7.834534	19.190609
O	12.830799	9.072748	22.223588
O	9.328610	6.596331	19.025149
O	10.156399	8.937653	17.591397
O	11.811963	6.596331	17.591397
O	12.003016	6.731425	20.789826
O	10.347451	9.072748	20.789826
O	9.328610	6.596331	16.157626
O	12.830799	9.072748	19.356072
