40

Co	1.836413	1.836413	1.836413
O	0.000000	1.836413	1.836413
O	1.836413	0.000000	1.836413
O	1.836413	1.836413	0.000000
Zr	0.000000	0.000000	0.000000
Co	1.836413	1.836413	5.509239
O	0.000000	1.836413	5.509239
O	1.836413	0.000000	5.509239
O	1.836413	1.836413	3.672826
Zr	0.000000	0.000000	3.672826
Co	1.836413	5.509239	1.836413
O	0.000000	5.509239	1.836413
O	1.836413	3.672826	1.836413
O	1.836413	5.509239	0.000000
Zr	0.000000	3.672826	0.000000
Co	1.836413	5.509239	5.509239
O	0.000000	5.509239	5.509239
O	1.836413	3.672826	5.509239
O	1.836413	5.509239	3.672826
Zr	0.000000	3.672826	3.672826
Co	5.509239	1.836413	1.836413
O	3.672826	1.836413	1.836413
O	5.509239	0.000000	1.836413
O	5.509239	1.836413	0.000000
Zr	3.672826	0.000000	0.000000
Co	5.509239	1.836413	5.509239
O	3.672826	1.836413	5.509239
O	5.509239	0.000000	5.509239
O	5.509239	1.836413	3.672826
Zr	3.672826	0.000000	3.672826
Co	5.509239	5.509239	1.836413
O	3.672826	5.509239	1.836413
O	5.509239	3.672826	1.836413
O	5.509239	5.509239	0.000000
Zr	3.672826	3.672826	0.000000
Co	5.509239	5.509239	5.509239
O	3.672826	5.509239	5.509239
O	5.509239	3.672826	5.509239
O	5.509239	5.509239	3.672826
Zr	3.672826	3.672826	3.672826
