40

Co	1.826797	1.826797	1.826797
O	1.826797	1.826797	0.000000
O	1.826797	0.000000	1.826797
O	0.000000	1.826797	1.826797
Zr	0.000000	0.000000	0.000000
Co	1.826797	1.826797	5.480383
O	1.826797	1.826797	3.653586
O	1.826797	0.000000	5.480383
O	0.000000	1.826797	5.480383
Zr	0.000000	0.000000	3.653586
Co	1.826797	5.480383	1.826797
O	1.826797	5.480383	0.000000
O	1.826797	3.653586	1.826797
O	0.000000	5.480383	1.826797
Zr	0.000000	3.653586	0.000000
Co	1.826797	5.480383	5.480383
O	1.826797	5.480383	3.653586
O	1.826797	3.653586	5.480383
O	0.000000	5.480383	5.480383
Zr	0.000000	3.653586	3.653586
Co	5.480383	1.826797	1.826797
O	5.480383	1.826797	0.000000
O	5.480383	0.000000	1.826797
O	3.653586	1.826797	1.826797
Zr	3.653586	0.000000	0.000000
Co	5.480383	1.826797	5.480383
O	5.480383	1.826797	3.653586
O	5.480383	0.000000	5.480383
O	3.653586	1.826797	5.480383
Zr	3.653586	0.000000	3.653586
Co	5.480383	5.480383	1.826797
O	5.480383	5.480383	0.000000
O	5.480383	3.653586	1.826797
O	3.653586	5.480383	1.826797
Zr	3.653586	3.653586	0.000000
Co	5.480383	5.480383	5.480383
O	5.480383	5.480383	3.653586
O	5.480383	3.653586	5.480383
O	3.653586	5.480383	5.480383
Zr	3.653586	3.653586	3.653586
