40

K	2.250836	2.250836	2.250836
Mg	0.000000	0.000000	0.000000
O	0.000000	2.250836	2.250836
O	2.250836	0.000000	2.250836
O	2.250836	2.250836	0.000000
K	2.250836	2.250836	6.752507
Mg	0.000000	0.000000	4.501671
O	0.000000	2.250836	6.752507
O	2.250836	0.000000	6.752507
O	2.250836	2.250836	4.501671
K	2.250836	6.752507	2.250836
Mg	0.000000	4.501671	0.000000
O	0.000000	6.752507	2.250836
O	2.250836	4.501671	2.250836
O	2.250836	6.752507	0.000000
K	2.250836	6.752507	6.752507
Mg	0.000000	4.501671	4.501671
O	0.000000	6.752507	6.752507
O	2.250836	4.501671	6.752507
O	2.250836	6.752507	4.501671
K	6.752507	2.250836	2.250836
Mg	4.501671	0.000000	0.000000
O	4.501671	2.250836	2.250836
O	6.752507	0.000000	2.250836
O	6.752507	2.250836	0.000000
K	6.752507	2.250836	6.752507
Mg	4.501671	0.000000	4.501671
O	4.501671	2.250836	6.752507
O	6.752507	0.000000	6.752507
O	6.752507	2.250836	4.501671
K	6.752507	6.752507	2.250836
Mg	4.501671	4.501671	0.000000
O	4.501671	6.752507	2.250836
O	6.752507	4.501671	2.250836
O	6.752507	6.752507	0.000000
K	6.752507	6.752507	6.752507
Mg	4.501671	4.501671	4.501671
O	4.501671	6.752507	6.752507
O	6.752507	4.501671	6.752507
O	6.752507	6.752507	4.501671
