40

F	0.000000	2.246016	2.246016
F	2.246016	0.000000	2.246016
F	2.246016	2.246016	0.000000
I	2.246016	2.246016	2.246016
O	0.000000	0.000000	0.000000
F	0.000000	2.246016	6.738048
F	2.246016	0.000000	6.738048
F	2.246016	2.246016	4.492032
I	2.246016	2.246016	6.738048
O	0.000000	0.000000	4.492032
F	0.000000	6.738048	2.246016
F	2.246016	4.492032	2.246016
F	2.246016	6.738048	0.000000
I	2.246016	6.738048	2.246016
O	0.000000	4.492032	0.000000
F	0.000000	6.738048	6.738048
F	2.246016	4.492032	6.738048
F	2.246016	6.738048	4.492032
I	2.246016	6.738048	6.738048
O	0.000000	4.492032	4.492032
F	4.492032	2.246016	2.246016
F	6.738048	0.000000	2.246016
F	6.738048	2.246016	0.000000
I	6.738048	2.246016	2.246016
O	4.492032	0.000000	0.000000
F	4.492032	2.246016	6.738048
F	6.738048	0.000000	6.738048
F	6.738048	2.246016	4.492032
I	6.738048	2.246016	6.738048
O	4.492032	0.000000	4.492032
F	4.492032	6.738048	2.246016
F	6.738048	4.492032	2.246016
F	6.738048	6.738048	0.000000
I	6.738048	6.738048	2.246016
O	4.492032	4.492032	0.000000
F	4.492032	6.738048	6.738048
F	6.738048	4.492032	6.738048
F	6.738048	6.738048	4.492032
I	6.738048	6.738048	6.738048
O	4.492032	4.492032	4.492032
