40

Co	1.852307	1.852307	1.852307
O	1.852307	1.852307	0.000000
O	1.852307	0.000000	1.852307
O	0.000000	1.852307	1.852307
Tc	0.000000	0.000000	0.000000
Co	1.852307	1.852307	5.556920
O	1.852307	1.852307	3.704613
O	1.852307	0.000000	5.556920
O	0.000000	1.852307	5.556920
Tc	0.000000	0.000000	3.704613
Co	1.852307	5.556920	1.852307
O	1.852307	5.556920	0.000000
O	1.852307	3.704613	1.852307
O	0.000000	5.556920	1.852307
Tc	0.000000	3.704613	0.000000
Co	1.852307	5.556920	5.556920
O	1.852307	5.556920	3.704613
O	1.852307	3.704613	5.556920
O	0.000000	5.556920	5.556920
Tc	0.000000	3.704613	3.704613
Co	5.556920	1.852307	1.852307
O	5.556920	1.852307	0.000000
O	5.556920	0.000000	1.852307
O	3.704613	1.852307	1.852307
Tc	3.704613	0.000000	0.000000
Co	5.556920	1.852307	5.556920
O	5.556920	1.852307	3.704613
O	5.556920	0.000000	5.556920
O	3.704613	1.852307	5.556920
Tc	3.704613	0.000000	3.704613
Co	5.556920	5.556920	1.852307
O	5.556920	5.556920	0.000000
O	5.556920	3.704613	1.852307
O	3.704613	5.556920	1.852307
Tc	3.704613	3.704613	0.000000
Co	5.556920	5.556920	5.556920
O	5.556920	5.556920	3.704613
O	5.556920	3.704613	5.556920
O	3.704613	5.556920	5.556920
Tc	3.704613	3.704613	3.704613
