40

Co	0.000000	0.000000	0.000000
O	0.000000	1.978411	1.978411
O	1.978411	0.000000	1.978411
O	1.978411	1.978411	0.000000
Tc	1.978411	1.978411	1.978411
Co	0.000000	0.000000	3.956822
O	0.000000	1.978411	5.935233
O	1.978411	0.000000	5.935233
O	1.978411	1.978411	3.956822
Tc	1.978411	1.978411	5.935233
Co	0.000000	3.956822	0.000000
O	0.000000	5.935233	1.978411
O	1.978411	3.956822	1.978411
O	1.978411	5.935233	0.000000
Tc	1.978411	5.935233	1.978411
Co	0.000000	3.956822	3.956822
O	0.000000	5.935233	5.935233
O	1.978411	3.956822	5.935233
O	1.978411	5.935233	3.956822
Tc	1.978411	5.935233	5.935233
Co	3.956822	0.000000	0.000000
O	3.956822	1.978411	1.978411
O	5.935233	0.000000	1.978411
O	5.935233	1.978411	0.000000
Tc	5.935233	1.978411	1.978411
Co	3.956822	0.000000	3.956822
O	3.956822	1.978411	5.935233
O	5.935233	0.000000	5.935233
O	5.935233	1.978411	3.956822
Tc	5.935233	1.978411	5.935233
Co	3.956822	3.956822	0.000000
O	3.956822	5.935233	1.978411
O	5.935233	3.956822	1.978411
O	5.935233	5.935233	0.000000
Tc	5.935233	5.935233	1.978411
Co	3.956822	3.956822	3.956822
O	3.956822	5.935233	5.935233
O	5.935233	3.956822	5.935233
O	5.935233	5.935233	3.956822
Tc	5.935233	5.935233	5.935233
