40

Ca	2.072314	2.072314	2.072314
O	2.072314	2.072314	0.000000
O	2.072314	0.000000	2.072314
O	0.000000	2.072314	2.072314
Sb	0.000000	0.000000	0.000000
Ca	2.072314	2.072314	6.216934
O	2.072314	2.072314	4.144620
O	2.072314	0.000000	6.216934
O	0.000000	2.072314	6.216934
Sb	0.000000	0.000000	4.144620
Ca	2.072314	6.216934	2.072314
O	2.072314	6.216934	0.000000
O	2.072314	4.144620	2.072314
O	0.000000	6.216934	2.072314
Sb	0.000000	4.144620	0.000000
Ca	2.072314	6.216934	6.216934
O	2.072314	6.216934	4.144620
O	2.072314	4.144620	6.216934
O	0.000000	6.216934	6.216934
Sb	0.000000	4.144620	4.144620
Ca	6.216934	2.072314	2.072314
O	6.216934	2.072314	0.000000
O	6.216934	0.000000	2.072314
O	4.144620	2.072314	2.072314
Sb	4.144620	0.000000	0.000000
Ca	6.216934	2.072314	6.216934
O	6.216934	2.072314	4.144620
O	6.216934	0.000000	6.216934
O	4.144620	2.072314	6.216934
Sb	4.144620	0.000000	4.144620
Ca	6.216934	6.216934	2.072314
O	6.216934	6.216934	0.000000
O	6.216934	4.144620	2.072314
O	4.144620	6.216934	2.072314
Sb	4.144620	4.144620	0.000000
Ca	6.216934	6.216934	6.216934
O	6.216934	6.216934	4.144620
O	6.216934	4.144620	6.216934
O	4.144620	6.216934	6.216934
Sb	4.144620	4.144620	4.144620
