40

O	2.088451	2.088451	0.000000
O	2.088451	0.000000	2.088451
O	0.000000	2.088451	2.088451
Pr	0.000000	0.000000	0.000000
Yb	2.088451	2.088451	2.088451
O	2.088451	2.088451	4.176901
O	2.088451	0.000000	6.265352
O	0.000000	2.088451	6.265352
Pr	0.000000	0.000000	4.176901
Yb	2.088451	2.088451	6.265352
O	2.088451	6.265352	0.000000
O	2.088451	4.176901	2.088451
O	0.000000	6.265352	2.088451
Pr	0.000000	4.176901	0.000000
Yb	2.088451	6.265352	2.088451
O	2.088451	6.265352	4.176901
O	2.088451	4.176901	6.265352
O	0.000000	6.265352	6.265352
Pr	0.000000	4.176901	4.176901
Yb	2.088451	6.265352	6.265352
O	6.265352	2.088451	0.000000
O	6.265352	0.000000	2.088451
O	4.176901	2.088451	2.088451
Pr	4.176901	0.000000	0.000000
Yb	6.265352	2.088451	2.088451
O	6.265352	2.088451	4.176901
O	6.265352	0.000000	6.265352
O	4.176901	2.088451	6.265352
Pr	4.176901	0.000000	4.176901
Yb	6.265352	2.088451	6.265352
O	6.265352	6.265352	0.000000
O	6.265352	4.176901	2.088451
O	4.176901	6.265352	2.088451
Pr	4.176901	4.176901	0.000000
Yb	6.265352	6.265352	2.088451
O	6.265352	6.265352	4.176901
O	6.265352	4.176901	6.265352
O	4.176901	6.265352	6.265352
Pr	4.176901	4.176901	4.176901
Yb	6.265352	6.265352	6.265352
