40

B	1.738340	1.738340	1.738340
Gd_3	0.000000	0.000000	0.000000
O	1.738340	0.000000	1.738340
O	0.000000	1.738340	1.738340
O	1.738340	1.738340	0.000000
B	1.738340	1.738340	5.215023
Gd_3	0.000000	0.000000	3.476683
O	1.738340	0.000000	5.215023
O	0.000000	1.738340	5.215023
O	1.738340	1.738340	3.476683
B	1.738340	5.215023	1.738340
Gd_3	0.000000	3.476683	0.000000
O	1.738340	3.476683	1.738340
O	0.000000	5.215023	1.738340
O	1.738340	5.215023	0.000000
B	1.738340	5.215023	5.215023
Gd_3	0.000000	3.476683	3.476683
O	1.738340	3.476683	5.215023
O	0.000000	5.215023	5.215023
O	1.738340	5.215023	3.476683
B	5.215023	1.738340	1.738340
Gd_3	3.476683	0.000000	0.000000
O	5.215023	0.000000	1.738340
O	3.476683	1.738340	1.738340
O	5.215023	1.738340	0.000000
B	5.215023	1.738340	5.215023
Gd_3	3.476683	0.000000	3.476683
O	5.215023	0.000000	5.215023
O	3.476683	1.738340	5.215023
O	5.215023	1.738340	3.476683
B	5.215023	5.215023	1.738340
Gd_3	3.476683	3.476683	0.000000
O	5.215023	3.476683	1.738340
O	3.476683	5.215023	1.738340
O	5.215023	5.215023	0.000000
B	5.215023	5.215023	5.215023
Gd_3	3.476683	3.476683	3.476683
O	5.215023	3.476683	5.215023
O	3.476683	5.215023	5.215023
O	5.215023	5.215023	3.476683
