112

Li	0.000000	0.000000	0.000000
Li	2.096249	-2.096582	-2.096582
O	3.138404	-1.053328	-1.053328
O	-1.054094	1.053328	-3.139836
O	1.054094	-1.053328	-3.139836
O	1.042155	1.043254	-1.043254
O	5.246592	1.053328	-1.053328
O	1.042155	3.149910	-3.149910
O	3.150343	3.149910	-1.043254
O	3.150343	1.043254	-3.149910
W	-1.048125	-1.048291	-3.144873
W	3.144374	1.048291	-1.048291
W	5.240623	-1.048291	-1.048291
W	1.048125	1.048291	-3.144873
Li	4.192498	4.193164	0.000000
Li	6.288747	2.096582	-2.096582
O	7.330902	3.139836	-1.053328
O	3.138404	5.246491	-3.139836
O	5.246592	3.139836	-3.139836
O	5.234653	5.236418	-1.043254
O	9.439090	5.246491	-1.053328
O	5.234653	7.343073	-3.149910
O	7.342841	7.343073	-1.043254
O	7.342841	5.236418	-3.149910
W	3.144374	3.144873	-3.144873
W	7.336872	5.241455	-1.048291
W	9.433121	3.144873	-1.048291
W	5.240623	5.241455	-3.144873
Li	-4.192498	0.000000	-4.193164
Li	-2.096249	-2.096582	-6.289746
O	-1.054094	-1.053328	-5.246491
O	-5.246592	1.053328	-7.333000
O	-3.138404	-1.053328	-7.333000
O	-3.150343	1.043254	-5.236418
O	1.054094	1.053328	-5.246491
O	-3.150343	3.149910	-7.343073
O	-1.042155	3.149910	-5.236418
O	-1.042155	1.043254	-7.343073
W	-5.240623	-1.048291	-7.338036
W	-1.048125	1.048291	-5.241455
W	1.048125	-1.048291	-5.241455
W	-3.144374	1.048291	-7.338036
Li	0.000000	4.193164	-4.193164
Li	2.096249	2.096582	-6.289746
O	3.138404	3.139836	-5.246491
O	-1.054094	5.246491	-7.333000
O	1.054094	3.139836	-7.333000
O	1.042155	5.236418	-5.236418
O	5.246592	5.246491	-5.246491
O	1.042155	7.343073	-7.343073
O	3.150343	7.343073	-5.236418
O	3.150343	5.236418	-7.343073
W	-1.048125	3.144873	-7.338036
W	3.144374	5.241455	-5.241455
W	5.240623	3.144873	-5.241455
W	1.048125	5.241455	-7.338036
Li	4.192498	-4.193164	0.000000
Li	6.288747	-6.289746	-2.096582
O	7.330902	-5.246491	-1.053328
O	3.138404	-3.139836	-3.139836
O	5.246592	-5.246491	-3.139836
O	5.234653	-3.149910	-1.043254
O	9.439090	-3.139836	-1.053328
O	5.234653	-1.043254	-3.149910
O	7.342841	-1.043254	-1.043254
O	7.342841	-3.149910	-3.149910
W	3.144374	-5.241455	-3.144873
W	7.336872	-3.144873	-1.048291
W	9.433121	-5.241455	-1.048291
W	5.240623	-3.144873	-3.144873
Li	8.384996	0.000000	0.000000
Li	10.481245	-2.096582	-2.096582
O	11.523400	-1.053328	-1.053328
O	7.330902	1.053328	-3.139836
O	9.439090	-1.053328	-3.139836
O	9.427151	1.043254	-1.043254
O	13.631588	1.053328	-1.053328
O	9.427151	3.149910	-3.149910
O	11.535339	3.149910	-1.043254
O	11.535339	1.043254	-3.149910
W	7.336872	-1.048291	-3.144873
W	11.529370	1.048291	-1.048291
W	13.625619	-1.048291	-1.048291
W	9.433121	1.048291	-3.144873
Li	0.000000	-4.193164	-4.193164
Li	2.096249	-6.289746	-6.289746
O	3.138404	-5.246491	-5.246491
O	-1.054094	-3.139836	-7.333000
O	1.054094	-5.246491	-7.333000
O	1.042155	-3.149910	-5.236418
O	5.246592	-3.139836	-5.246491
O	1.042155	-1.043254	-7.343073
O	3.150343	-1.043254	-5.236418
O	3.150343	-3.149910	-7.343073
W	-1.048125	-5.241455	-7.338036
W	3.144374	-3.144873	-5.241455
W	5.240623	-5.241455	-5.241455
W	1.048125	-3.144873	-7.338036
Li	4.192498	0.000000	-4.193164
Li	6.288747	-2.096582	-6.289746
O	7.330902	-1.053328	-5.246491
O	3.138404	1.053328	-7.333000
O	5.246592	-1.053328	-7.333000
O	5.234653	1.043254	-5.236418
O	9.439090	1.053328	-5.246491
O	5.234653	3.149910	-7.343073
O	7.342841	3.149910	-5.236418
O	7.342841	1.043254	-7.343073
W	3.144374	-1.048291	-7.338036
W	7.336872	1.048291	-5.241455
W	9.433121	-1.048291	-5.241455
W	5.240623	1.048291	-7.338036
