112

Be	0.000000	0.000000	0.000000
Be	2.215867	-2.215956	-2.215956
O	0.985088	0.985182	-0.985182
O	-1.230779	1.230773	-3.201138
O	3.200964	-1.230773	-1.230773
O	1.230779	-1.230773	-3.201138
O	0.985088	3.446729	-3.446729
O	3.446646	0.985182	-3.446729
O	3.446646	3.446729	-0.985182
O	5.662523	1.230773	-1.230773
Sb	-1.107938	-1.107983	-3.323939
Sb	5.539672	-1.107983	-1.107983
Sb	3.323805	1.107983	-1.107983
Sb	1.107938	1.107983	-3.323939
Be	4.431740	4.431912	0.000000
Be	6.647607	2.215956	-2.215956
O	5.416827	5.417094	-0.985182
O	3.200961	5.662685	-3.201138
O	7.632704	3.201138	-1.230773
O	5.662519	3.201138	-3.201138
O	5.416827	7.878641	-3.446729
O	7.878386	5.417094	-3.446729
O	7.878386	7.878641	-0.985182
O	10.094262	5.662685	-1.230773
Sb	3.323801	3.323929	-3.323939
Sb	9.971412	3.323929	-1.107983
Sb	7.755545	5.539895	-1.107983
Sb	5.539678	5.539895	-3.323939
Be	-4.431740	0.000000	-4.431912
Be	-2.215873	-2.215956	-6.647868
O	-3.446652	0.985182	-5.417094
O	-5.662519	1.230773	-7.633050
O	-1.230776	-1.230773	-5.662685
O	-3.200961	-1.230773	-7.633050
O	-3.446652	3.446729	-7.878641
O	-0.985094	0.985182	-7.878641
O	-0.985094	3.446729	-5.417094
O	1.230783	1.230773	-5.662685
Sb	-5.539678	-1.107983	-7.755851
Sb	1.107932	-1.107983	-5.539895
Sb	-1.107935	1.107983	-5.539895
Sb	-3.323802	1.107983	-7.755851
Be	0.000000	4.431912	-4.431912
Be	2.215867	2.215956	-6.647868
O	0.985088	5.417094	-5.417094
O	-1.230779	5.662685	-7.633050
O	3.200964	3.201138	-5.662685
O	1.230779	3.201138	-7.633050
O	0.985088	7.878641	-7.878641
O	3.446646	5.417094	-7.878641
O	3.446646	7.878641	-5.417094
O	5.662523	5.662685	-5.662685
Sb	-1.107938	3.323929	-7.755851
Sb	5.539672	3.323929	-5.539895
Sb	3.323805	5.539895	-5.539895
Sb	1.107938	5.539895	-7.755851
Be	4.431740	-4.431912	0.000000
Be	6.647607	-6.647868	-2.215956
O	5.416827	-3.446729	-0.985182
O	3.200961	-3.201138	-3.201138
O	7.632704	-5.662685	-1.230773
O	5.662519	-5.662685	-3.201138
O	5.416827	-0.985183	-3.446729
O	7.878386	-3.446729	-3.446729
O	7.878386	-0.985183	-0.985182
O	10.094262	-3.201138	-1.230773
Sb	3.323801	-5.539895	-3.323939
Sb	9.971412	-5.539895	-1.107983
Sb	7.755545	-3.323929	-1.107983
Sb	5.539678	-3.323929	-3.323939
Be	8.863480	0.000000	0.000000
Be	11.079346	-2.215956	-2.215956
O	9.848567	0.985182	-0.985182
O	7.632700	1.230773	-3.201138
O	12.064444	-1.230773	-1.230773
O	10.094259	-1.230773	-3.201138
O	9.848567	3.446729	-3.446729
O	12.310126	0.985182	-3.446729
O	12.310126	3.446729	-0.985182
O	14.526002	1.230773	-1.230773
Sb	7.755541	-1.107983	-3.323939
Sb	14.403152	-1.107983	-1.107983
Sb	12.187285	1.107983	-1.107983
Sb	9.971418	1.107983	-3.323939
Be	0.000000	-4.431912	-4.431912
Be	2.215867	-6.647868	-6.647868
O	0.985088	-3.446729	-5.417094
O	-1.230779	-3.201138	-7.633050
O	3.200964	-5.662685	-5.662685
O	1.230779	-5.662685	-7.633050
O	0.985088	-0.985183	-7.878641
O	3.446646	-3.446729	-7.878641
O	3.446646	-0.985183	-5.417094
O	5.662523	-3.201138	-5.662685
Sb	-1.107938	-5.539895	-7.755851
Sb	5.539672	-5.539895	-5.539895
Sb	3.323805	-3.323929	-5.539895
Sb	1.107938	-3.323929	-7.755851
Be	4.431740	0.000000	-4.431912
Be	6.647607	-2.215956	-6.647868
O	5.416827	0.985182	-5.417094
O	3.200961	1.230773	-7.633050
O	7.632704	-1.230773	-5.662685
O	5.662519	-1.230773	-7.633050
O	5.416827	3.446729	-7.878641
O	7.878386	0.985182	-7.878641
O	7.878386	3.446729	-5.417094
O	10.094262	1.230773	-5.662685
Sb	3.323801	-1.107983	-7.755851
Sb	9.971412	-1.107983	-5.539895
Sb	7.755545	1.107983	-5.539895
Sb	5.539678	1.107983	-7.755851
