40

As	0.000000	0.000000	0.000000
Co	1.829615	1.829615	1.829615
O	1.829615	1.829615	0.000000
O	1.829615	0.000000	1.829615
O	0.000000	1.829615	1.829615
As	0.000000	0.000000	3.659228
Co	1.829615	1.829615	5.488843
O	1.829615	1.829615	3.659228
O	1.829615	0.000000	5.488843
O	0.000000	1.829615	5.488843
As	0.000000	3.659228	0.000000
Co	1.829615	5.488843	1.829615
O	1.829615	5.488843	0.000000
O	1.829615	3.659228	1.829615
O	0.000000	5.488843	1.829615
As	0.000000	3.659228	3.659228
Co	1.829615	5.488843	5.488843
O	1.829615	5.488843	3.659228
O	1.829615	3.659228	5.488843
O	0.000000	5.488843	5.488843
As	3.659228	0.000000	0.000000
Co	5.488843	1.829615	1.829615
O	5.488843	1.829615	0.000000
O	5.488843	0.000000	1.829615
O	3.659228	1.829615	1.829615
As	3.659228	0.000000	3.659228
Co	5.488843	1.829615	5.488843
O	5.488843	1.829615	3.659228
O	5.488843	0.000000	5.488843
O	3.659228	1.829615	5.488843
As	3.659228	3.659228	0.000000
Co	5.488843	5.488843	1.829615
O	5.488843	5.488843	0.000000
O	5.488843	3.659228	1.829615
O	3.659228	5.488843	1.829615
As	3.659228	3.659228	3.659228
Co	5.488843	5.488843	5.488843
O	5.488843	5.488843	3.659228
O	5.488843	3.659228	5.488843
O	3.659228	5.488843	5.488843
