40

Cr	0.000000	0.000000	0.000000
O	2.080850	2.080850	0.000000
O	2.080850	0.000000	2.080850
O	0.000000	2.080850	2.080850
Yb	2.080850	2.080850	2.080850
Cr	0.000000	0.000000	4.161715
O	2.080850	2.080850	4.161715
O	2.080850	0.000000	6.242566
O	0.000000	2.080850	6.242566
Yb	2.080850	2.080850	6.242566
Cr	0.000000	4.161715	0.000000
O	2.080850	6.242566	0.000000
O	2.080850	4.161715	2.080850
O	0.000000	6.242566	2.080850
Yb	2.080850	6.242566	2.080850
Cr	0.000000	4.161715	4.161715
O	2.080850	6.242566	4.161715
O	2.080850	4.161715	6.242566
O	0.000000	6.242566	6.242566
Yb	2.080850	6.242566	6.242566
Cr	4.161715	0.000000	0.000000
O	6.242566	2.080850	0.000000
O	6.242566	0.000000	2.080850
O	4.161715	2.080850	2.080850
Yb	6.242566	2.080850	2.080850
Cr	4.161715	0.000000	4.161715
O	6.242566	2.080850	4.161715
O	6.242566	0.000000	6.242566
O	4.161715	2.080850	6.242566
Yb	6.242566	2.080850	6.242566
Cr	4.161715	4.161715	0.000000
O	6.242566	6.242566	0.000000
O	6.242566	4.161715	2.080850
O	4.161715	6.242566	2.080850
Yb	6.242566	6.242566	2.080850
Cr	4.161715	4.161715	4.161715
O	6.242566	6.242566	4.161715
O	6.242566	4.161715	6.242566
O	4.161715	6.242566	6.242566
Yb	6.242566	6.242566	6.242566
