40

Cu	0.000000	0.000000	0.000000
F	0.000000	1.896593	1.896593
F	1.896593	0.000000	1.896593
F	1.896593	1.896593	0.000000
O	1.896593	1.896593	1.896593
Cu	0.000000	0.000000	3.793186
F	0.000000	1.896593	5.689779
F	1.896593	0.000000	5.689779
F	1.896593	1.896593	3.793186
O	1.896593	1.896593	5.689779
Cu	0.000000	3.793186	0.000000
F	0.000000	5.689779	1.896593
F	1.896593	3.793186	1.896593
F	1.896593	5.689779	0.000000
O	1.896593	5.689779	1.896593
Cu	0.000000	3.793186	3.793186
F	0.000000	5.689779	5.689779
F	1.896593	3.793186	5.689779
F	1.896593	5.689779	3.793186
O	1.896593	5.689779	5.689779
Cu	3.793186	0.000000	0.000000
F	3.793186	1.896593	1.896593
F	5.689779	0.000000	1.896593
F	5.689779	1.896593	0.000000
O	5.689779	1.896593	1.896593
Cu	3.793186	0.000000	3.793186
F	3.793186	1.896593	5.689779
F	5.689779	0.000000	5.689779
F	5.689779	1.896593	3.793186
O	5.689779	1.896593	5.689779
Cu	3.793186	3.793186	0.000000
F	3.793186	5.689779	1.896593
F	5.689779	3.793186	1.896593
F	5.689779	5.689779	0.000000
O	5.689779	5.689779	1.896593
Cu	3.793186	3.793186	3.793186
F	3.793186	5.689779	5.689779
F	5.689779	3.793186	5.689779
F	5.689779	5.689779	3.793186
O	5.689779	5.689779	5.689779
