40

Cu	1.856317	1.856317	1.856317
O	1.856317	1.856317	0.000000
O	1.856317	0.000000	1.856317
O	0.000000	1.856317	1.856317
Ru	0.000000	0.000000	0.000000
Cu	1.856317	1.856317	5.568952
O	1.856317	1.856317	3.712636
O	1.856317	0.000000	5.568952
O	0.000000	1.856317	5.568952
Ru	0.000000	0.000000	3.712636
Cu	1.856317	5.568952	1.856317
O	1.856317	5.568952	0.000000
O	1.856317	3.712636	1.856317
O	0.000000	5.568952	1.856317
Ru	0.000000	3.712636	0.000000
Cu	1.856317	5.568952	5.568952
O	1.856317	5.568952	3.712636
O	1.856317	3.712636	5.568952
O	0.000000	5.568952	5.568952
Ru	0.000000	3.712636	3.712636
Cu	5.568952	1.856317	1.856317
O	5.568952	1.856317	0.000000
O	5.568952	0.000000	1.856317
O	3.712636	1.856317	1.856317
Ru	3.712636	0.000000	0.000000
Cu	5.568952	1.856317	5.568952
O	5.568952	1.856317	3.712636
O	5.568952	0.000000	5.568952
O	3.712636	1.856317	5.568952
Ru	3.712636	0.000000	3.712636
Cu	5.568952	5.568952	1.856317
O	5.568952	5.568952	0.000000
O	5.568952	3.712636	1.856317
O	3.712636	5.568952	1.856317
Ru	3.712636	3.712636	0.000000
Cu	5.568952	5.568952	5.568952
O	5.568952	5.568952	3.712636
O	5.568952	3.712636	5.568952
O	3.712636	5.568952	5.568952
Ru	3.712636	3.712636	3.712636
