40

O	0.000000	1.987320	1.987320
O	1.987320	0.000000	1.987320
O	1.987320	1.987320	0.000000
Sb	0.000000	0.000000	0.000000
Ti	1.987320	1.987320	1.987320
O	0.000000	1.987320	5.961960
O	1.987320	0.000000	5.961960
O	1.987320	1.987320	3.974640
Sb	0.000000	0.000000	3.974640
Ti	1.987320	1.987320	5.961960
O	0.000000	5.961960	1.987320
O	1.987320	3.974640	1.987320
O	1.987320	5.961960	0.000000
Sb	0.000000	3.974640	0.000000
Ti	1.987320	5.961960	1.987320
O	0.000000	5.961960	5.961960
O	1.987320	3.974640	5.961960
O	1.987320	5.961960	3.974640
Sb	0.000000	3.974640	3.974640
Ti	1.987320	5.961960	5.961960
O	3.974640	1.987320	1.987320
O	5.961960	0.000000	1.987320
O	5.961960	1.987320	0.000000
Sb	3.974640	0.000000	0.000000
Ti	5.961960	1.987320	1.987320
O	3.974640	1.987320	5.961960
O	5.961960	0.000000	5.961960
O	5.961960	1.987320	3.974640
Sb	3.974640	0.000000	3.974640
Ti	5.961960	1.987320	5.961960
O	3.974640	5.961960	1.987320
O	5.961960	3.974640	1.987320
O	5.961960	5.961960	0.000000
Sb	3.974640	3.974640	0.000000
Ti	5.961960	5.961960	1.987320
O	3.974640	5.961960	5.961960
O	5.961960	3.974640	5.961960
O	5.961960	5.961960	3.974640
Sb	3.974640	3.974640	3.974640
Ti	5.961960	5.961960	5.961960
