264

Bi	4.935968	-3.299446	1.825910
Bi	6.901205	0.139326	-1.775849
Bi	3.249384	-0.139326	-1.775849
Bi	3.299446	1.825910	-4.935968
Bi	1.775849	-3.249384	-0.139326
Bi	0.139326	-1.775849	-3.249384
Bi	5.214621	-3.299446	-1.825910
Bi	1.775849	-6.901205	0.139326
Bi	3.299446	-1.825910	-5.214621
Bi	-1.825910	-4.935968	-3.299446
Bi	1.825910	-5.214621	-3.299446
Bi	-0.139326	-1.775849	-6.901205
O	3.114946	3.114946	-3.114946
O	1.068980	1.068980	-1.068980
O	3.114946	-3.114946	3.114946
O	5.186215	1.344979	-2.580998
O	-1.068980	-1.068980	-1.068980
O	3.730315	-2.494297	0.110921
O	6.420274	-2.494297	-0.110921
O	2.494297	0.110921	-3.730315
O	2.580998	-5.186215	1.344979
O	4.964374	-1.344979	-2.580998
O	1.960349	-1.960349	-1.960349
O	-3.114946	-3.114946	-3.114946
O	-0.110921	-3.730315	-2.494297
O	2.580998	-4.964374	-1.344979
O	2.494297	-0.110921	-6.420274
O	1.344979	-2.580998	-4.964374
O	-1.344979	-2.580998	-5.186215
O	4.006315	-4.006315	-4.006315
O	0.110921	-6.420274	-2.494297
O	1.068980	-1.068980	1.068980
Ti	0.000000	0.000000	0.000000
Bi	-0.139326	-8.374740	-3.249384
Bi	1.825910	-4.935968	-6.851144
Bi	-1.825910	-5.214621	-6.851144
Bi	-1.775849	-3.249384	-10.011263
Bi	-3.299446	-8.324679	-5.214621
Bi	-4.935968	-6.851144	-8.324679
Bi	0.139326	-8.374740	-6.901205
Bi	-3.299446	-11.976500	-4.935968
Bi	-1.775849	-6.901205	-10.289916
Bi	-6.901205	-10.011263	-8.374740
Bi	-3.249384	-10.289916	-8.374740
Bi	-5.214621	-6.851144	-11.976500
O	-1.960349	-1.960349	-8.190240
O	-4.006315	-4.006315	-6.144274
O	-1.960349	-8.190240	-1.960349
O	0.110921	-3.730315	-7.656293
O	-6.144274	-6.144274	-6.144274
O	-1.344979	-7.569591	-4.964374
O	1.344979	-7.569591	-5.186215
O	-2.580998	-4.964374	-8.805610
O	-2.494297	-10.261510	-3.730315
O	-0.110921	-6.420274	-7.656293
O	-3.114946	-7.035644	-7.035644
O	-8.190240	-8.190240	-8.190240
O	-5.186215	-8.805610	-7.569591
O	-2.494297	-10.039668	-6.420274
O	-2.580998	-5.186215	-11.495569
O	-3.730315	-7.656293	-10.039668
O	-6.420274	-7.656293	-10.261510
O	-1.068980	-9.081609	-9.081609
O	-4.964374	-11.495569	-7.569591
O	-4.006315	-6.144274	-4.006315
Ti	-5.075295	-5.075295	-5.075295
Bi	10.011263	-8.374740	6.901205
Bi	11.976500	-4.935968	3.299446
Bi	8.324679	-5.214621	3.299446
Bi	8.374740	-3.249384	0.139326
Bi	6.851144	-8.324679	4.935968
Bi	5.214621	-6.851144	1.825910
Bi	10.289916	-8.374740	3.249384
Bi	6.851144	-11.976500	5.214621
Bi	8.374740	-6.901205	-0.139326
Bi	3.249384	-10.011263	1.775849
Bi	6.901205	-10.289916	1.775849
Bi	4.935968	-6.851144	-1.825910
O	8.190240	-1.960349	1.960349
O	6.144274	-4.006315	4.006315
O	8.190240	-8.190240	8.190240
O	10.261510	-3.730315	2.494297
O	4.006315	-6.144274	4.006315
O	8.805610	-7.569591	5.186215
O	11.495569	-7.569591	4.964374
O	7.569591	-4.964374	1.344979
O	7.656293	-10.261510	6.420274
O	10.039668	-6.420274	2.494297
O	7.035644	-7.035644	3.114946
O	1.960349	-8.190240	1.960349
O	4.964374	-8.805610	2.580998
O	7.656293	-10.039668	3.730315
O	7.569591	-5.186215	-1.344979
O	6.420274	-7.656293	0.110921
O	3.730315	-7.656293	-0.110921
O	9.081609	-9.081609	1.068980
O	5.186215	-11.495569	2.580998
O	6.144274	-6.144274	6.144274
Ti	5.075295	-5.075295	5.075295
Bi	4.935968	-13.450035	1.825910
Bi	6.901205	-10.011263	-1.775849
Bi	3.249384	-10.289916	-1.775849
Bi	3.299446	-8.324679	-4.935968
Bi	1.775849	-13.399973	-0.139326
Bi	0.139326	-11.926438	-3.249384
Bi	5.214621	-13.450035	-1.825910
Bi	1.775849	-17.051794	0.139326
Bi	3.299446	-11.976499	-5.214621
Bi	-1.825910	-15.086557	-3.299446
Bi	1.825910	-15.365210	-3.299446
Bi	-0.139326	-11.926438	-6.901205
O	3.114946	-7.035644	-3.114946
O	1.068980	-9.081609	-1.068980
O	3.114946	-13.265535	3.114946
O	5.186215	-8.805610	-2.580998
O	-1.068980	-11.219569	-1.068980
O	3.730315	-12.644886	0.110921
O	6.420274	-12.644886	-0.110921
O	2.494297	-10.039668	-3.730315
O	2.580998	-15.336805	1.344979
O	4.964374	-11.495569	-2.580998
O	1.960349	-12.110938	-1.960349
O	-3.114946	-13.265535	-3.114946
O	-0.110921	-13.880904	-2.494297
O	2.580998	-15.114963	-1.344979
O	2.494297	-10.261510	-6.420274
O	1.344979	-12.731587	-4.964374
O	-1.344979	-12.731587	-5.186215
O	4.006315	-14.156904	-4.006315
O	0.110921	-16.570863	-2.494297
O	1.068980	-11.219569	1.068980
Ti	0.000000	-10.150589	0.000000
Bi	10.011263	1.775849	-3.249384
Bi	11.976500	5.214621	-6.851144
Bi	8.324679	4.935968	-6.851144
Bi	8.374740	6.901205	-10.011263
Bi	6.851144	1.825910	-5.214621
Bi	5.214621	3.299446	-8.324679
Bi	10.289916	1.775849	-6.901205
Bi	6.851144	-1.825910	-4.935968
Bi	8.374740	3.249384	-10.289916
Bi	3.249384	0.139326	-8.374740
Bi	6.901205	-0.139326	-8.374740
Bi	4.935968	3.299446	-11.976500
O	8.190240	8.190240	-8.190240
O	6.144274	6.144274	-6.144274
O	8.190240	1.960349	-1.960349
O	10.261510	6.420274	-7.656293
O	4.006315	4.006315	-6.144274
O	8.805610	2.580998	-4.964374
O	11.495569	2.580998	-5.186215
O	7.569591	5.186215	-8.805610
O	7.656293	-0.110921	-3.730315
O	10.039668	3.730315	-7.656293
O	7.035644	3.114946	-7.035644
O	1.960349	1.960349	-8.190240
O	4.964374	1.344979	-7.569591
O	7.656293	0.110921	-6.420274
O	7.569591	4.964374	-11.495569
O	6.420274	2.494297	-10.039668
O	3.730315	2.494297	-10.261510
O	9.081609	1.068980	-9.081609
O	5.186215	-1.344979	-7.569591
O	6.144274	4.006315	-4.006315
Ti	5.075295	5.075295	-5.075295
Bi	4.935968	-3.299446	-8.324679
Bi	6.901205	0.139326	-11.926438
Bi	3.249384	-0.139326	-11.926438
Bi	3.299446	1.825910	-15.086557
Bi	1.775849	-3.249384	-10.289916
Bi	0.139326	-1.775849	-13.399973
Bi	5.214621	-3.299446	-11.976499
Bi	1.775849	-6.901205	-10.011263
Bi	3.299446	-1.825910	-15.365210
Bi	-1.825910	-4.935968	-13.450035
Bi	1.825910	-5.214621	-13.450035
Bi	-0.139326	-1.775849	-17.051794
O	3.114946	3.114946	-13.265535
O	1.068980	1.068980	-11.219569
O	3.114946	-3.114946	-7.035644
O	5.186215	1.344979	-12.731587
O	-1.068980	-1.068980	-11.219569
O	3.730315	-2.494297	-10.039668
O	6.420274	-2.494297	-10.261510
O	2.494297	0.110921	-13.880904
O	2.580998	-5.186215	-8.805610
O	4.964374	-1.344979	-12.731587
O	1.960349	-1.960349	-12.110938
O	-3.114946	-3.114946	-13.265535
O	-0.110921	-3.730315	-12.644886
O	2.580998	-4.964374	-11.495569
O	2.494297	-0.110921	-16.570863
O	1.344979	-2.580998	-15.114963
O	-1.344979	-2.580998	-15.336805
O	4.006315	-4.006315	-14.156904
O	0.110921	-6.420274	-12.644886
O	1.068980	-1.068980	-9.081609
Ti	0.000000	0.000000	-10.150589
Bi	15.086557	-3.299446	1.825910
Bi	17.051794	0.139326	-1.775849
Bi	13.399973	-0.139326	-1.775849
Bi	13.450035	1.825910	-4.935968
Bi	11.926438	-3.249384	-0.139326
Bi	10.289916	-1.775849	-3.249384
Bi	15.365210	-3.299446	-1.825910
Bi	11.926438	-6.901205	0.139326
Bi	13.450035	-1.825910	-5.214621
Bi	8.324679	-4.935968	-3.299446
Bi	11.976499	-5.214621	-3.299446
Bi	10.011263	-1.775849	-6.901205
O	13.265535	3.114946	-3.114946
O	11.219569	1.068980	-1.068980
O	13.265535	-3.114946	3.114946
O	15.336805	1.344979	-2.580998
O	9.081609	-1.068980	-1.068980
O	13.880904	-2.494297	0.110921
O	16.570863	-2.494297	-0.110921
O	12.644886	0.110921	-3.730315
O	12.731587	-5.186215	1.344979
O	15.114963	-1.344979	-2.580998
O	12.110938	-1.960349	-1.960349
O	7.035644	-3.114946	-3.114946
O	10.039668	-3.730315	-2.494297
O	12.731587	-4.964374	-1.344979
O	12.644886	-0.110921	-6.420274
O	11.495569	-2.580998	-4.964374
O	8.805610	-2.580998	-5.186215
O	14.156904	-4.006315	-4.006315
O	10.261510	-6.420274	-2.494297
O	11.219569	-1.068980	1.068980
Ti	10.150589	0.000000	0.000000
Bi	10.011263	-8.374740	-3.249384
Bi	11.976500	-4.935968	-6.851144
Bi	8.324679	-5.214621	-6.851144
Bi	8.374740	-3.249384	-10.011263
Bi	6.851144	-8.324679	-5.214621
Bi	5.214621	-6.851144	-8.324679
Bi	10.289916	-8.374740	-6.901205
Bi	6.851144	-11.976500	-4.935968
Bi	8.374740	-6.901205	-10.289916
Bi	3.249384	-10.011263	-8.374740
Bi	6.901205	-10.289916	-8.374740
Bi	4.935968	-6.851144	-11.976500
O	8.190240	-1.960349	-8.190240
O	6.144274	-4.006315	-6.144274
O	8.190240	-8.190240	-1.960349
O	10.261510	-3.730315	-7.656293
O	4.006315	-6.144274	-6.144274
O	8.805610	-7.569591	-4.964374
O	11.495569	-7.569591	-5.186215
O	7.569591	-4.964374	-8.805610
O	7.656293	-10.261510	-3.730315
O	10.039668	-6.420274	-7.656293
O	7.035644	-7.035644	-7.035644
O	1.960349	-8.190240	-8.190240
O	4.964374	-8.805610	-7.569591
O	7.656293	-10.039668	-6.420274
O	7.569591	-5.186215	-11.495569
O	6.420274	-7.656293	-10.039668
O	3.730315	-7.656293	-10.261510
O	9.081609	-9.081609	-9.081609
O	5.186215	-11.495569	-7.569591
O	6.144274	-6.144274	-4.006315
Ti	5.075295	-5.075295	-5.075295
