176

Dy	-2.606763	0.000000	2.606763
Dy	2.606763	-2.606763	0.000000
Dy	5.213525	0.000000	0.000000
Dy	0.000000	-2.606763	2.606763
Hf	0.000000	0.000000	0.000000
Hf	2.606763	2.606763	0.000000
Hf	0.000000	2.606763	2.606763
Hf	2.606763	0.000000	2.606763
O	3.910144	3.910144	0.928017
O	-1.303381	1.678746	3.910144
O	0.928017	3.910144	3.910144
O	1.303381	-0.928017	1.303381
O	3.534780	1.303381	1.303381
O	1.303381	1.303381	3.534780
O	-1.303381	-1.303381	3.910144
O	6.516907	1.303381	1.303381
O	3.910144	-1.303381	1.678746
O	1.678746	-1.303381	3.910144
O	3.910144	0.928017	3.910144
O	4.285508	-3.910144	1.303381
O	6.516907	-1.678746	1.303381
O	1.303381	-3.910144	4.285508
Dy	2.606763	-5.213525	2.606763
Dy	7.820288	-7.820288	0.000000
Dy	10.427050	-5.213525	0.000000
Dy	5.213525	-7.820288	2.606763
Hf	5.213525	-5.213525	0.000000
Hf	7.820288	-2.606763	0.000000
Hf	5.213525	-2.606763	2.606763
Hf	7.820288	-5.213525	2.606763
O	9.123669	-1.303381	0.928017
O	3.910144	-3.534780	3.910144
O	6.141542	-1.303381	3.910144
O	6.516907	-6.141542	1.303381
O	8.748305	-3.910144	1.303381
O	6.516907	-3.910144	3.534780
O	3.910144	-6.516907	3.910144
O	11.730432	-3.910144	1.303381
O	9.123669	-6.516907	1.678746
O	6.892271	-6.516907	3.910144
O	9.123669	-4.285508	3.910144
O	9.499033	-9.123669	1.303381
O	11.730432	-6.892271	1.303381
O	6.516907	-9.123669	4.285508
Dy	-7.820288	0.000000	7.820288
Dy	-2.606763	-2.606763	5.213525
Dy	0.000000	0.000000	5.213525
Dy	-5.213525	-2.606763	7.820288
Hf	-5.213525	0.000000	5.213525
Hf	-2.606763	2.606763	5.213525
Hf	-5.213525	2.606763	7.820288
Hf	-2.606763	0.000000	7.820288
O	-1.303381	3.910144	6.141542
O	-6.516907	1.678746	9.123669
O	-4.285508	3.910144	9.123669
O	-3.910144	-0.928017	6.516907
O	-1.678746	1.303381	6.516907
O	-3.910144	1.303381	8.748305
O	-6.516907	-1.303381	9.123669
O	1.303381	1.303381	6.516907
O	-1.303381	-1.303381	6.892271
O	-3.534780	-1.303381	9.123669
O	-1.303381	0.928017	9.123669
O	-0.928017	-3.910144	6.516907
O	1.303381	-1.678746	6.516907
O	-3.910144	-3.910144	9.499033
Dy	-2.606763	-5.213525	7.820288
Dy	2.606763	-7.820288	5.213525
Dy	5.213525	-5.213525	5.213525
Dy	0.000000	-7.820288	7.820288
Hf	0.000000	-5.213525	5.213525
Hf	2.606763	-2.606763	5.213525
Hf	0.000000	-2.606763	7.820288
Hf	2.606763	-5.213525	7.820288
O	3.910144	-1.303381	6.141542
O	-1.303381	-3.534780	9.123669
O	0.928017	-1.303381	9.123669
O	1.303381	-6.141542	6.516907
O	3.534780	-3.910144	6.516907
O	1.303381	-3.910144	8.748305
O	-1.303381	-6.516907	9.123669
O	6.516907	-3.910144	6.516907
O	3.910144	-6.516907	6.892271
O	1.678746	-6.516907	9.123669
O	3.910144	-4.285508	9.123669
O	4.285508	-9.123669	6.516907
O	6.516907	-6.892271	6.516907
O	1.303381	-9.123669	9.499033
Dy	2.606763	5.213525	2.606763
Dy	7.820288	2.606763	0.000000
Dy	10.427050	5.213525	0.000000
Dy	5.213525	2.606763	2.606763
Hf	5.213525	5.213525	0.000000
Hf	7.820288	7.820288	0.000000
Hf	5.213525	7.820288	2.606763
Hf	7.820288	5.213525	2.606763
O	9.123669	9.123669	0.928017
O	3.910144	6.892271	3.910144
O	6.141542	9.123669	3.910144
O	6.516907	4.285508	1.303381
O	8.748305	6.516907	1.303381
O	6.516907	6.516907	3.534780
O	3.910144	3.910144	3.910144
O	11.730432	6.516907	1.303381
O	9.123669	3.910144	1.678746
O	6.892271	3.910144	3.910144
O	9.123669	6.141542	3.910144
O	9.499033	1.303381	1.303381
O	11.730432	3.534780	1.303381
O	6.516907	1.303381	4.285508
Dy	7.820288	0.000000	2.606763
Dy	13.033813	-2.606763	0.000000
Dy	15.640576	0.000000	0.000000
Dy	10.427050	-2.606763	2.606763
Hf	10.427050	0.000000	0.000000
Hf	13.033813	2.606763	0.000000
Hf	10.427050	2.606763	2.606763
Hf	13.033813	0.000000	2.606763
O	14.337194	3.910144	0.928017
O	9.123669	1.678746	3.910144
O	11.355068	3.910144	3.910144
O	11.730432	-0.928017	1.303381
O	13.961830	1.303381	1.303381
O	11.730432	1.303381	3.534780
O	9.123669	-1.303381	3.910144
O	16.943957	1.303381	1.303381
O	14.337194	-1.303381	1.678746
O	12.105796	-1.303381	3.910144
O	14.337194	0.928017	3.910144
O	14.712559	-3.910144	1.303381
O	16.943957	-1.678746	1.303381
O	11.730432	-3.910144	4.285508
Dy	-2.606763	5.213525	7.820288
Dy	2.606763	2.606763	5.213525
Dy	5.213525	5.213525	5.213525
Dy	0.000000	2.606763	7.820288
Hf	0.000000	5.213525	5.213525
Hf	2.606763	7.820288	5.213525
Hf	0.000000	7.820288	7.820288
Hf	2.606763	5.213525	7.820288
O	3.910144	9.123669	6.141542
O	-1.303381	6.892271	9.123669
O	0.928017	9.123669	9.123669
O	1.303381	4.285508	6.516907
O	3.534780	6.516907	6.516907
O	1.303381	6.516907	8.748305
O	-1.303381	3.910144	9.123669
O	6.516907	6.516907	6.516907
O	3.910144	3.910144	6.892271
O	1.678746	3.910144	9.123669
O	3.910144	6.141542	9.123669
O	4.285508	1.303381	6.516907
O	6.516907	3.534780	6.516907
O	1.303381	1.303381	9.499033
Dy	2.606763	0.000000	7.820288
Dy	7.820288	-2.606763	5.213525
Dy	10.427050	0.000000	5.213525
Dy	5.213525	-2.606763	7.820288
Hf	5.213525	0.000000	5.213525
Hf	7.820288	2.606763	5.213525
Hf	5.213525	2.606763	7.820288
Hf	7.820288	0.000000	7.820288
O	9.123669	3.910144	6.141542
O	3.910144	1.678746	9.123669
O	6.141542	3.910144	9.123669
O	6.516907	-0.928017	6.516907
O	8.748305	1.303381	6.516907
O	6.516907	1.303381	8.748305
O	3.910144	-1.303381	9.123669
O	11.730432	1.303381	6.516907
O	9.123669	-1.303381	6.892271
O	6.892271	-1.303381	9.123669
O	9.123669	0.928017	9.123669
O	9.499033	-3.910144	6.516907
O	11.730432	-1.678746	6.516907
O	6.516907	-3.910144	9.499033
