40

O	2.102450	2.102450	0.000000
O	0.000000	2.102450	2.102450
O	2.102450	0.000000	2.102450
Tl_d	2.102450	2.102450	2.102450
Zr_sv	0.000000	0.000000	0.000000
O	2.102450	2.102450	4.204896
O	0.000000	2.102450	6.307346
O	2.102450	0.000000	6.307346
Tl_d	2.102450	2.102450	6.307346
Zr_sv	0.000000	0.000000	4.204896
O	2.102450	6.307346	0.000000
O	0.000000	6.307346	2.102450
O	2.102450	4.204896	2.102450
Tl_d	2.102450	6.307346	2.102450
Zr_sv	0.000000	4.204896	0.000000
O	2.102450	6.307346	4.204896
O	0.000000	6.307346	6.307346
O	2.102450	4.204896	6.307346
Tl_d	2.102450	6.307346	6.307346
Zr_sv	0.000000	4.204896	4.204896
O	6.307346	2.102450	0.000000
O	4.204896	2.102450	2.102450
O	6.307346	0.000000	2.102450
Tl_d	6.307346	2.102450	2.102450
Zr_sv	4.204896	0.000000	0.000000
O	6.307346	2.102450	4.204896
O	4.204896	2.102450	6.307346
O	6.307346	0.000000	6.307346
Tl_d	6.307346	2.102450	6.307346
Zr_sv	4.204896	0.000000	4.204896
O	6.307346	6.307346	0.000000
O	4.204896	6.307346	2.102450
O	6.307346	4.204896	2.102450
Tl_d	6.307346	6.307346	2.102450
Zr_sv	4.204896	4.204896	0.000000
O	6.307346	6.307346	4.204896
O	4.204896	6.307346	6.307346
O	6.307346	4.204896	6.307346
Tl_d	6.307346	6.307346	6.307346
Zr_sv	4.204896	4.204896	4.204896
