112

Dy	0.000000	0.000000	0.000000
Dy	2.373449	-2.374107	-2.374107
O	3.658000	-1.088655	-1.088655
O	-1.088897	1.088655	-3.659558
O	1.088897	-1.088655	-3.659558
O	1.284551	1.285451	-1.285451
O	5.835795	1.088655	-1.088655
O	1.284551	3.462762	-3.462762
O	3.462346	3.462762	-1.285451
O	3.462346	1.285451	-3.462762
Tm	-1.186724	-1.187053	-3.561160
Tm	3.560173	1.187053	-1.187053
Tm	5.933622	-1.187053	-1.187053
Tm	1.186724	1.187053	-3.561160
Dy	4.746897	4.748213	0.000000
Dy	7.120346	2.374107	-2.374107
O	8.404897	3.659558	-1.088655
O	3.658000	5.836868	-3.659558
O	5.835795	3.659558	-3.659558
O	6.031449	6.033664	-1.285451
O	10.582692	5.836868	-1.088655
O	6.031449	8.210975	-3.462762
O	8.209243	8.210975	-1.285451
O	8.209243	6.033664	-3.462762
Tm	3.560173	3.561160	-3.561160
Tm	8.307070	5.935266	-1.187053
Tm	10.680519	3.561160	-1.187053
Tm	5.933622	5.935266	-3.561160
Dy	-4.746897	0.000000	-4.748213
Dy	-2.373449	-2.374107	-7.122320
O	-1.088897	-1.088655	-5.836868
O	-5.835795	1.088655	-8.407771
O	-3.658000	-1.088655	-8.407771
O	-3.462346	1.285451	-6.033664
O	1.088897	1.088655	-5.836868
O	-3.462346	3.462762	-8.210975
O	-1.284551	3.462762	-6.033664
O	-1.284551	1.285451	-8.210975
Tm	-5.933622	-1.187053	-8.309373
Tm	-1.186724	1.187053	-5.935266
Tm	1.186724	-1.187053	-5.935266
Tm	-3.560173	1.187053	-8.309373
Dy	0.000000	4.748213	-4.748213
Dy	2.373449	2.374107	-7.122320
O	3.658000	3.659558	-5.836868
O	-1.088897	5.836868	-8.407771
O	1.088897	3.659558	-8.407771
O	1.284551	6.033664	-6.033664
O	5.835795	5.836868	-5.836868
O	1.284551	8.210975	-8.210975
O	3.462346	8.210975	-6.033664
O	3.462346	6.033664	-8.210975
Tm	-1.186724	3.561160	-8.309373
Tm	3.560173	5.935266	-5.935266
Tm	5.933622	3.561160	-5.935266
Tm	1.186724	5.935266	-8.309373
Dy	4.746897	-4.748213	0.000000
Dy	7.120346	-7.122320	-2.374107
O	8.404897	-5.836868	-1.088655
O	3.658000	-3.659558	-3.659558
O	5.835795	-5.836868	-3.659558
O	6.031449	-3.462762	-1.285451
O	10.582692	-3.659558	-1.088655
O	6.031449	-1.285451	-3.462762
O	8.209243	-1.285451	-1.285451
O	8.209243	-3.462762	-3.462762
Tm	3.560173	-5.935266	-3.561160
Tm	8.307070	-3.561160	-1.187053
Tm	10.680519	-5.935266	-1.187053
Tm	5.933622	-3.561160	-3.561160
Dy	9.493795	0.000000	0.000000
Dy	11.867243	-2.374107	-2.374107
O	13.151795	-1.088655	-1.088655
O	8.404897	1.088655	-3.659558
O	10.582692	-1.088655	-3.659558
O	10.778346	1.285451	-1.285451
O	15.329590	1.088655	-1.088655
O	10.778346	3.462762	-3.462762
O	12.956141	3.462762	-1.285451
O	12.956141	1.285451	-3.462762
Tm	8.307070	-1.187053	-3.561160
Tm	13.053968	1.187053	-1.187053
Tm	15.427416	-1.187053	-1.187053
Tm	10.680519	1.187053	-3.561160
Dy	0.000000	-4.748213	-4.748213
Dy	2.373449	-7.122320	-7.122320
O	3.658000	-5.836868	-5.836868
O	-1.088897	-3.659558	-8.407771
O	1.088897	-5.836868	-8.407771
O	1.284551	-3.462762	-6.033664
O	5.835795	-3.659558	-5.836868
O	1.284551	-1.285451	-8.210975
O	3.462346	-1.285451	-6.033664
O	3.462346	-3.462762	-8.210975
Tm	-1.186724	-5.935266	-8.309373
Tm	3.560173	-3.561160	-5.935266
Tm	5.933622	-5.935266	-5.935266
Tm	1.186724	-3.561160	-8.309373
Dy	4.746897	0.000000	-4.748213
Dy	7.120346	-2.374107	-7.122320
O	8.404897	-1.088655	-5.836868
O	3.658000	1.088655	-8.407771
O	5.835795	-1.088655	-8.407771
O	6.031449	1.285451	-6.033664
O	10.582692	1.088655	-5.836868
O	6.031449	3.462762	-8.210975
O	8.209243	3.462762	-6.033664
O	8.209243	1.285451	-8.210975
Tm	3.560173	-1.187053	-8.309373
Tm	8.307070	1.187053	-5.935266
Tm	10.680519	-1.187053	-5.935266
Tm	5.933622	1.187053	-8.309373
