40

Co	0.000000	0.000000	0.000000
O	2.146101	2.146101	0.000000
O	2.146101	0.000000	2.146101
O	0.000000	2.146101	2.146101
Pu	2.146101	2.146101	2.146101
Co	0.000000	0.000000	4.292198
O	2.146101	2.146101	4.292198
O	2.146101	0.000000	6.438299
O	0.000000	2.146101	6.438299
Pu	2.146101	2.146101	6.438299
Co	0.000000	4.292198	0.000000
O	2.146101	6.438299	0.000000
O	2.146101	4.292198	2.146101
O	0.000000	6.438299	2.146101
Pu	2.146101	6.438299	2.146101
Co	0.000000	4.292198	4.292198
O	2.146101	6.438299	4.292198
O	2.146101	4.292198	6.438299
O	0.000000	6.438299	6.438299
Pu	2.146101	6.438299	6.438299
Co	4.292198	0.000000	0.000000
O	6.438299	2.146101	0.000000
O	6.438299	0.000000	2.146101
O	4.292198	2.146101	2.146101
Pu	6.438299	2.146101	2.146101
Co	4.292198	0.000000	4.292198
O	6.438299	2.146101	4.292198
O	6.438299	0.000000	6.438299
O	4.292198	2.146101	6.438299
Pu	6.438299	2.146101	6.438299
Co	4.292198	4.292198	0.000000
O	6.438299	6.438299	0.000000
O	6.438299	4.292198	2.146101
O	4.292198	6.438299	2.146101
Pu	6.438299	6.438299	2.146101
Co	4.292198	4.292198	4.292198
O	6.438299	6.438299	4.292198
O	6.438299	4.292198	6.438299
O	4.292198	6.438299	6.438299
Pu	6.438299	6.438299	6.438299
