40

B	0.000000	0.000000	0.000000
O	1.876195	1.876195	0.000000
O	1.876195	0.000000	1.876195
O	0.000000	1.876195	1.876195
Zn	1.876195	1.876195	1.876195
B	0.000000	0.000000	3.752379
O	1.876195	1.876195	3.752379
O	1.876195	0.000000	5.628575
O	0.000000	1.876195	5.628575
Zn	1.876195	1.876195	5.628575
B	0.000000	3.752379	0.000000
O	1.876195	5.628575	0.000000
O	1.876195	3.752379	1.876195
O	0.000000	5.628575	1.876195
Zn	1.876195	5.628575	1.876195
B	0.000000	3.752379	3.752379
O	1.876195	5.628575	3.752379
O	1.876195	3.752379	5.628575
O	0.000000	5.628575	5.628575
Zn	1.876195	5.628575	5.628575
B	3.752379	0.000000	0.000000
O	5.628575	1.876195	0.000000
O	5.628575	0.000000	1.876195
O	3.752379	1.876195	1.876195
Zn	5.628575	1.876195	1.876195
B	3.752379	0.000000	3.752379
O	5.628575	1.876195	3.752379
O	5.628575	0.000000	5.628575
O	3.752379	1.876195	5.628575
Zn	5.628575	1.876195	5.628575
B	3.752379	3.752379	0.000000
O	5.628575	5.628575	0.000000
O	5.628575	3.752379	1.876195
O	3.752379	5.628575	1.876195
Zn	5.628575	5.628575	1.876195
B	3.752379	3.752379	3.752379
O	5.628575	5.628575	3.752379
O	5.628575	3.752379	5.628575
O	3.752379	5.628575	5.628575
Zn	5.628575	5.628575	5.628575
