40

B	1.671540	1.671540	1.671540
O	1.671540	1.671540	0.000000
O	0.000000	1.671540	1.671540
O	1.671540	0.000000	1.671540
Zn	0.000000	0.000000	0.000000
B	1.671540	1.671540	5.014623
O	1.671540	1.671540	3.343083
O	0.000000	1.671540	5.014623
O	1.671540	0.000000	5.014623
Zn	0.000000	0.000000	3.343083
B	1.671540	5.014623	1.671540
O	1.671540	5.014623	0.000000
O	0.000000	5.014623	1.671540
O	1.671540	3.343083	1.671540
Zn	0.000000	3.343083	0.000000
B	1.671540	5.014623	5.014623
O	1.671540	5.014623	3.343083
O	0.000000	5.014623	5.014623
O	1.671540	3.343083	5.014623
Zn	0.000000	3.343083	3.343083
B	5.014623	1.671540	1.671540
O	5.014623	1.671540	0.000000
O	3.343083	1.671540	1.671540
O	5.014623	0.000000	1.671540
Zn	3.343083	0.000000	0.000000
B	5.014623	1.671540	5.014623
O	5.014623	1.671540	3.343083
O	3.343083	1.671540	5.014623
O	5.014623	0.000000	5.014623
Zn	3.343083	0.000000	3.343083
B	5.014623	5.014623	1.671540
O	5.014623	5.014623	0.000000
O	3.343083	5.014623	1.671540
O	5.014623	3.343083	1.671540
Zn	3.343083	3.343083	0.000000
B	5.014623	5.014623	5.014623
O	5.014623	5.014623	3.343083
O	3.343083	5.014623	5.014623
O	5.014623	3.343083	5.014623
Zn	3.343083	3.343083	3.343083
