40

B	0.000000	0.000000	0.000000
O	0.000000	1.905225	1.905225
O	1.905225	0.000000	1.905225
O	1.905225	1.905225	0.000000
Zn	1.905225	1.905225	1.905225
B	0.000000	0.000000	3.810450
O	0.000000	1.905225	5.715675
O	1.905225	0.000000	5.715675
O	1.905225	1.905225	3.810450
Zn	1.905225	1.905225	5.715675
B	0.000000	3.810450	0.000000
O	0.000000	5.715675	1.905225
O	1.905225	3.810450	1.905225
O	1.905225	5.715675	0.000000
Zn	1.905225	5.715675	1.905225
B	0.000000	3.810450	3.810450
O	0.000000	5.715675	5.715675
O	1.905225	3.810450	5.715675
O	1.905225	5.715675	3.810450
Zn	1.905225	5.715675	5.715675
B	3.810450	0.000000	0.000000
O	3.810450	1.905225	1.905225
O	5.715675	0.000000	1.905225
O	5.715675	1.905225	0.000000
Zn	5.715675	1.905225	1.905225
B	3.810450	0.000000	3.810450
O	3.810450	1.905225	5.715675
O	5.715675	0.000000	5.715675
O	5.715675	1.905225	3.810450
Zn	5.715675	1.905225	5.715675
B	3.810450	3.810450	0.000000
O	3.810450	5.715675	1.905225
O	5.715675	3.810450	1.905225
O	5.715675	5.715675	0.000000
Zn	5.715675	5.715675	1.905225
B	3.810450	3.810450	3.810450
O	3.810450	5.715675	5.715675
O	5.715675	3.810450	5.715675
O	5.715675	5.715675	3.810450
Zn	5.715675	5.715675	5.715675
