112

Ba	0.000000	0.000000	0.000000
Ba	2.585092	-2.585620	-2.585620
O	4.069343	-1.100402	-1.100402
O	-1.100841	1.100402	-4.070838
O	1.100841	-1.100402	-4.070838
O	1.484251	1.485218	-1.485218
O	6.271025	1.100402	-1.100402
O	1.484251	3.686021	-3.686021
O	3.685933	3.686021	-1.485218
O	3.685933	1.485218	-3.686021
Pb	-1.292546	-1.292810	-3.878430
Pb	3.877638	1.292810	-1.292810
Pb	6.462730	-1.292810	-1.292810
Pb	1.292546	1.292810	-3.878430
Ba	5.170184	5.171240	0.000000
Ba	7.755276	2.585620	-2.585620
O	9.239527	4.070838	-1.100402
O	4.069343	6.271641	-4.070838
O	6.271025	4.070838	-4.070838
O	6.654435	6.656458	-1.485218
O	11.441209	6.271641	-1.100402
O	6.654435	8.857261	-3.686021
O	8.856117	8.857261	-1.485218
O	8.856117	6.656458	-3.686021
Pb	3.877638	3.878430	-3.878430
Pb	9.047822	6.464050	-1.292810
Pb	11.632914	3.878430	-1.292810
Pb	6.462730	6.464050	-3.878430
Ba	-5.170184	0.000000	-5.171240
Ba	-2.585092	-2.585620	-7.756860
O	-1.100841	-1.100402	-6.271641
O	-6.271025	1.100402	-9.242078
O	-4.069343	-1.100402	-9.242078
O	-3.685933	1.485218	-6.656458
O	1.100841	1.100402	-6.271641
O	-3.685933	3.686021	-8.857261
O	-1.484251	3.686021	-6.656458
O	-1.484251	1.485218	-8.857261
Pb	-6.462730	-1.292810	-9.049670
Pb	-1.292546	1.292810	-6.464050
Pb	1.292546	-1.292810	-6.464050
Pb	-3.877638	1.292810	-9.049670
Ba	0.000000	5.171240	-5.171240
Ba	2.585092	2.585620	-7.756860
O	4.069343	4.070838	-6.271641
O	-1.100841	6.271641	-9.242078
O	1.100841	4.070838	-9.242078
O	1.484251	6.656458	-6.656458
O	6.271025	6.271641	-6.271641
O	1.484251	8.857261	-8.857261
O	3.685933	8.857261	-6.656458
O	3.685933	6.656458	-8.857261
Pb	-1.292546	3.878430	-9.049670
Pb	3.877638	6.464050	-6.464050
Pb	6.462730	3.878430	-6.464050
Pb	1.292546	6.464050	-9.049670
Ba	5.170184	-5.171240	0.000000
Ba	7.755276	-7.756860	-2.585620
O	9.239527	-6.271641	-1.100402
O	4.069343	-4.070838	-4.070838
O	6.271025	-6.271641	-4.070838
O	6.654435	-3.686021	-1.485218
O	11.441209	-4.070838	-1.100402
O	6.654435	-1.485218	-3.686021
O	8.856117	-1.485218	-1.485218
O	8.856117	-3.686021	-3.686021
Pb	3.877638	-6.464050	-3.878430
Pb	9.047822	-3.878430	-1.292810
Pb	11.632914	-6.464050	-1.292810
Pb	6.462730	-3.878430	-3.878430
Ba	10.340368	0.000000	0.000000
Ba	12.925460	-2.585620	-2.585620
O	14.409711	-1.100402	-1.100402
O	9.239527	1.100402	-4.070838
O	11.441209	-1.100402	-4.070838
O	11.824619	1.485218	-1.485218
O	16.611393	1.100402	-1.100402
O	11.824619	3.686021	-3.686021
O	14.026301	3.686021	-1.485218
O	14.026301	1.485218	-3.686021
Pb	9.047822	-1.292810	-3.878430
Pb	14.218006	1.292810	-1.292810
Pb	16.803098	-1.292810	-1.292810
Pb	11.632914	1.292810	-3.878430
Ba	0.000000	-5.171240	-5.171240
Ba	2.585092	-7.756860	-7.756860
O	4.069343	-6.271641	-6.271641
O	-1.100841	-4.070838	-9.242078
O	1.100841	-6.271641	-9.242078
O	1.484251	-3.686021	-6.656458
O	6.271025	-4.070838	-6.271641
O	1.484251	-1.485218	-8.857261
O	3.685933	-1.485218	-6.656458
O	3.685933	-3.686021	-8.857261
Pb	-1.292546	-6.464050	-9.049670
Pb	3.877638	-3.878430	-6.464050
Pb	6.462730	-6.464050	-6.464050
Pb	1.292546	-3.878430	-9.049670
Ba	5.170184	0.000000	-5.171240
Ba	7.755276	-2.585620	-7.756860
O	9.239527	-1.100402	-6.271641
O	4.069343	1.100402	-9.242078
O	6.271025	-1.100402	-9.242078
O	6.654435	1.485218	-6.656458
O	11.441209	1.100402	-6.271641
O	6.654435	3.686021	-8.857261
O	8.856117	3.686021	-6.656458
O	8.856117	1.485218	-8.857261
Pb	3.877638	-1.292810	-9.049670
Pb	9.047822	1.292810	-6.464050
Pb	11.632914	-1.292810	-6.464050
Pb	6.462730	1.292810	-9.049670
