40

K	0.000000	0.000000	0.000000
O	1.977960	1.977960	0.000000
O	1.977960	0.000000	1.977960
O	0.000000	1.977960	1.977960
Zn	1.977960	1.977960	1.977960
K	0.000000	0.000000	3.955918
O	1.977960	1.977960	3.955918
O	1.977960	0.000000	5.933878
O	0.000000	1.977960	5.933878
Zn	1.977960	1.977960	5.933878
K	0.000000	3.955918	0.000000
O	1.977960	5.933878	0.000000
O	1.977960	3.955918	1.977960
O	0.000000	5.933878	1.977960
Zn	1.977960	5.933878	1.977960
K	0.000000	3.955918	3.955918
O	1.977960	5.933878	3.955918
O	1.977960	3.955918	5.933878
O	0.000000	5.933878	5.933878
Zn	1.977960	5.933878	5.933878
K	3.955918	0.000000	0.000000
O	5.933878	1.977960	0.000000
O	5.933878	0.000000	1.977960
O	3.955918	1.977960	1.977960
Zn	5.933878	1.977960	1.977960
K	3.955918	0.000000	3.955918
O	5.933878	1.977960	3.955918
O	5.933878	0.000000	5.933878
O	3.955918	1.977960	5.933878
Zn	5.933878	1.977960	5.933878
K	3.955918	3.955918	0.000000
O	5.933878	5.933878	0.000000
O	5.933878	3.955918	1.977960
O	3.955918	5.933878	1.977960
Zn	5.933878	5.933878	1.977960
K	3.955918	3.955918	3.955918
O	5.933878	5.933878	3.955918
O	5.933878	3.955918	5.933878
O	3.955918	5.933878	5.933878
Zn	5.933878	5.933878	5.933878
