256

Cl	3.187243	2.890509	0.241257
Cl	5.390144	8.773274	0.669008
Cl	6.551773	4.962403	1.533904
Cl	9.201016	7.908379	1.830637
Cl	0.241257	3.187243	2.890509
Cl	2.890509	0.241257	3.187243
Cl	4.052138	4.052138	4.052138
Cl	6.255040	7.611645	4.479879
Cl	1.533904	6.551773	4.962403
Cl	8.773274	0.669008	5.390144
Cl	7.611645	4.479879	6.255040
Cl	4.962403	1.533904	6.551773
Cl	4.479879	6.255040	7.611645
Cl	1.830637	9.201016	7.908379
Cl	0.669008	5.390144	8.773274
Cl	7.908379	1.830637	9.201016
Hg	2.550882	7.748673	0.154005
Hg	4.875151	2.170254	1.693609
Hg	1.693609	4.875151	2.170254
Hg	7.748673	0.154005	2.550882
Hg	4.567132	6.891390	3.027537
Hg	6.891390	3.027537	4.567132
Hg	2.170254	1.693609	4.875151
Hg	9.288268	7.272028	6.414745
Hg	3.027537	4.567132	6.891390
Hg	6.414745	9.288268	7.272028
Hg	0.154005	2.550882	7.748673
Hg	7.272028	6.414745	9.288268
O	3.067685	6.374598	1.653462
O	6.374598	1.653462	3.067685
O	1.653462	3.067685	6.374598
O	7.788821	7.788821	7.788821
Cl	3.187243	2.890509	9.683535
Cl	5.390144	8.773274	10.111286
Cl	6.551773	4.962403	10.976182
Cl	9.201016	7.908379	11.272916
Cl	0.241257	3.187243	12.332787
Cl	2.890509	0.241257	12.629521
Cl	4.052138	4.052138	13.494417
Cl	6.255040	7.611645	13.922158
Cl	1.533904	6.551773	14.404681
Cl	8.773274	0.669008	14.832422
Cl	7.611645	4.479879	15.697318
Cl	4.962403	1.533904	15.994052
Cl	4.479879	6.255040	17.053923
Cl	1.830637	9.201016	17.350657
Cl	0.669008	5.390144	18.215553
Cl	7.908379	1.830637	18.643294
Hg	2.550882	7.748673	9.596283
Hg	4.875151	2.170254	11.135888
Hg	1.693609	4.875151	11.612532
Hg	7.748673	0.154005	11.993161
Hg	4.567132	6.891390	12.469815
Hg	6.891390	3.027537	14.009410
Hg	2.170254	1.693609	14.317429
Hg	9.288268	7.272028	15.857024
Hg	3.027537	4.567132	16.333668
Hg	6.414745	9.288268	16.714307
Hg	0.154005	2.550882	17.190951
Hg	7.272028	6.414745	18.730546
O	3.067685	6.374598	11.095740
O	6.374598	1.653462	12.509963
O	1.653462	3.067685	15.816876
O	7.788821	7.788821	17.231099
Cl	3.187243	12.332787	0.241257
Cl	5.390144	18.215553	0.669008
Cl	6.551773	14.404681	1.533904
Cl	9.201016	17.350657	1.830637
Cl	0.241257	12.629521	2.890509
Cl	2.890509	9.683535	3.187243
Cl	4.052138	13.494417	4.052138
Cl	6.255040	17.053923	4.479879
Cl	1.533904	15.994052	4.962403
Cl	8.773274	10.111286	5.390144
Cl	7.611645	13.922158	6.255040
Cl	4.962403	10.976182	6.551773
Cl	4.479879	15.697318	7.611645
Cl	1.830637	18.643294	7.908379
Cl	0.669008	14.832422	8.773274
Cl	7.908379	11.272916	9.201016
Hg	2.550882	17.190951	0.154005
Hg	4.875151	11.612532	1.693609
Hg	1.693609	14.317429	2.170254
Hg	7.748673	9.596283	2.550882
Hg	4.567132	16.333668	3.027537
Hg	6.891390	12.469815	4.567132
Hg	2.170254	11.135888	4.875151
Hg	9.288268	16.714307	6.414745
Hg	3.027537	14.009410	6.891390
Hg	6.414745	18.730546	7.272028
Hg	0.154005	11.993161	7.748673
Hg	7.272028	15.857024	9.288268
O	3.067685	15.816876	1.653462
O	6.374598	11.095740	3.067685
O	1.653462	12.509963	6.374598
O	7.788821	17.231099	7.788821
Cl	3.187243	12.332787	9.683535
Cl	5.390144	18.215553	10.111286
Cl	6.551773	14.404681	10.976182
Cl	9.201016	17.350657	11.272916
Cl	0.241257	12.629521	12.332787
Cl	2.890509	9.683535	12.629521
Cl	4.052138	13.494417	13.494417
Cl	6.255040	17.053923	13.922158
Cl	1.533904	15.994052	14.404681
Cl	8.773274	10.111286	14.832422
Cl	7.611645	13.922158	15.697318
Cl	4.962403	10.976182	15.994052
Cl	4.479879	15.697318	17.053923
Cl	1.830637	18.643294	17.350657
Cl	0.669008	14.832422	18.215553
Cl	7.908379	11.272916	18.643294
Hg	2.550882	17.190951	9.596283
Hg	4.875151	11.612532	11.135888
Hg	1.693609	14.317429	11.612532
Hg	7.748673	9.596283	11.993161
Hg	4.567132	16.333668	12.469815
Hg	6.891390	12.469815	14.009410
Hg	2.170254	11.135888	14.317429
Hg	9.288268	16.714307	15.857024
Hg	3.027537	14.009410	16.333668
Hg	6.414745	18.730546	16.714307
Hg	0.154005	11.993161	17.190951
Hg	7.272028	15.857024	18.730546
O	3.067685	15.816876	11.095740
O	6.374598	11.095740	12.509963
O	1.653462	12.509963	15.816876
O	7.788821	17.231099	17.231099
Cl	12.629521	2.890509	0.241257
Cl	14.832422	8.773274	0.669008
Cl	15.994052	4.962403	1.533904
Cl	18.643294	7.908379	1.830637
Cl	9.683535	3.187243	2.890509
Cl	12.332787	0.241257	3.187243
Cl	13.494417	4.052138	4.052138
Cl	15.697318	7.611645	4.479879
Cl	10.976182	6.551773	4.962403
Cl	18.215553	0.669008	5.390144
Cl	17.053923	4.479879	6.255040
Cl	14.404681	1.533904	6.551773
Cl	13.922158	6.255040	7.611645
Cl	11.272916	9.201016	7.908379
Cl	10.111286	5.390144	8.773274
Cl	17.350657	1.830637	9.201016
Hg	11.993161	7.748673	0.154005
Hg	14.317429	2.170254	1.693609
Hg	11.135888	4.875151	2.170254
Hg	17.190951	0.154005	2.550882
Hg	14.009410	6.891390	3.027537
Hg	16.333668	3.027537	4.567132
Hg	11.612532	1.693609	4.875151
Hg	18.730546	7.272028	6.414745
Hg	12.469815	4.567132	6.891390
Hg	15.857024	9.288268	7.272028
Hg	9.596283	2.550882	7.748673
Hg	16.714307	6.414745	9.288268
O	12.509963	6.374598	1.653462
O	15.816876	1.653462	3.067685
O	11.095740	3.067685	6.374598
O	17.231099	7.788821	7.788821
Cl	12.629521	2.890509	9.683535
Cl	14.832422	8.773274	10.111286
Cl	15.994052	4.962403	10.976182
Cl	18.643294	7.908379	11.272916
Cl	9.683535	3.187243	12.332787
Cl	12.332787	0.241257	12.629521
Cl	13.494417	4.052138	13.494417
Cl	15.697318	7.611645	13.922158
Cl	10.976182	6.551773	14.404681
Cl	18.215553	0.669008	14.832422
Cl	17.053923	4.479879	15.697318
Cl	14.404681	1.533904	15.994052
Cl	13.922158	6.255040	17.053923
Cl	11.272916	9.201016	17.350657
Cl	10.111286	5.390144	18.215553
Cl	17.350657	1.830637	18.643294
Hg	11.993161	7.748673	9.596283
Hg	14.317429	2.170254	11.135888
Hg	11.135888	4.875151	11.612532
Hg	17.190951	0.154005	11.993161
Hg	14.009410	6.891390	12.469815
Hg	16.333668	3.027537	14.009410
Hg	11.612532	1.693609	14.317429
Hg	18.730546	7.272028	15.857024
Hg	12.469815	4.567132	16.333668
Hg	15.857024	9.288268	16.714307
Hg	9.596283	2.550882	17.190951
Hg	16.714307	6.414745	18.730546
O	12.509963	6.374598	11.095740
O	15.816876	1.653462	12.509963
O	11.095740	3.067685	15.816876
O	17.231099	7.788821	17.231099
Cl	12.629521	12.332787	0.241257
Cl	14.832422	18.215553	0.669008
Cl	15.994052	14.404681	1.533904
Cl	18.643294	17.350657	1.830637
Cl	9.683535	12.629521	2.890509
Cl	12.332787	9.683535	3.187243
Cl	13.494417	13.494417	4.052138
Cl	15.697318	17.053923	4.479879
Cl	10.976182	15.994052	4.962403
Cl	18.215553	10.111286	5.390144
Cl	17.053923	13.922158	6.255040
Cl	14.404681	10.976182	6.551773
Cl	13.922158	15.697318	7.611645
Cl	11.272916	18.643294	7.908379
Cl	10.111286	14.832422	8.773274
Cl	17.350657	11.272916	9.201016
Hg	11.993161	17.190951	0.154005
Hg	14.317429	11.612532	1.693609
Hg	11.135888	14.317429	2.170254
Hg	17.190951	9.596283	2.550882
Hg	14.009410	16.333668	3.027537
Hg	16.333668	12.469815	4.567132
Hg	11.612532	11.135888	4.875151
Hg	18.730546	16.714307	6.414745
Hg	12.469815	14.009410	6.891390
Hg	15.857024	18.730546	7.272028
Hg	9.596283	11.993161	7.748673
Hg	16.714307	15.857024	9.288268
O	12.509963	15.816876	1.653462
O	15.816876	11.095740	3.067685
O	11.095740	12.509963	6.374598
O	17.231099	17.231099	7.788821
Cl	12.629521	12.332787	9.683535
Cl	14.832422	18.215553	10.111286
Cl	15.994052	14.404681	10.976182
Cl	18.643294	17.350657	11.272916
Cl	9.683535	12.629521	12.332787
Cl	12.332787	9.683535	12.629521
Cl	13.494417	13.494417	13.494417
Cl	15.697318	17.053923	13.922158
Cl	10.976182	15.994052	14.404681
Cl	18.215553	10.111286	14.832422
Cl	17.053923	13.922158	15.697318
Cl	14.404681	10.976182	15.994052
Cl	13.922158	15.697318	17.053923
Cl	11.272916	18.643294	17.350657
Cl	10.111286	14.832422	18.215553
Cl	17.350657	11.272916	18.643294
Hg	11.993161	17.190951	9.596283
Hg	14.317429	11.612532	11.135888
Hg	11.135888	14.317429	11.612532
Hg	17.190951	9.596283	11.993161
Hg	14.009410	16.333668	12.469815
Hg	16.333668	12.469815	14.009410
Hg	11.612532	11.135888	14.317429
Hg	18.730546	16.714307	15.857024
Hg	12.469815	14.009410	16.333668
Hg	15.857024	18.730546	16.714307
Hg	9.596283	11.993161	17.190951
Hg	16.714307	15.857024	18.730546
O	12.509963	15.816876	11.095740
O	15.816876	11.095740	12.509963
O	11.095740	12.509963	15.816876
O	17.231099	17.231099	17.231099
