112

Au	0.000000	0.000000	0.000000
Au	2.339662	-2.340441	-2.340441
O	3.710164	-0.968806	-0.968806
O	-0.969160	0.968806	-3.712076
O	0.969160	-0.968806	-3.712076
O	1.370502	1.371635	-1.371635
O	5.648483	0.968806	-0.968806
O	1.370502	3.309247	-3.309247
O	3.308821	3.309247	-1.371635
O	3.308821	1.371635	-3.309247
Zr	-1.169831	-1.170220	-3.510661
Zr	3.509493	1.170220	-1.170220
Zr	5.849155	-1.170220	-1.170220
Zr	1.169831	1.170220	-3.510661
Au	4.679324	4.680882	0.000000
Au	7.018986	2.340441	-2.340441
O	8.389488	3.712076	-0.968806
O	3.710164	5.649687	-3.712076
O	5.648483	3.712076	-3.712076
O	6.049826	6.052516	-1.371635
O	10.327807	5.649687	-0.968806
O	6.049826	7.990128	-3.309247
O	7.988145	7.990128	-1.371635
O	7.988145	6.052516	-3.309247
Zr	3.509493	3.510661	-3.510661
Zr	8.188817	5.851102	-1.170220
Zr	10.528479	3.510661	-1.170220
Zr	5.849155	5.851102	-3.510661
Au	-4.679324	0.000000	-4.680882
Au	-2.339662	-2.340441	-7.021322
O	-0.969160	-0.968806	-5.649687
O	-5.648483	0.968806	-8.392957
O	-3.710164	-0.968806	-8.392957
O	-3.308821	1.371635	-6.052516
O	0.969160	0.968806	-5.649687
O	-3.308821	3.309247	-7.990128
O	-1.370502	3.309247	-6.052516
O	-1.370502	1.371635	-7.990128
Zr	-5.849155	-1.170220	-8.191543
Zr	-1.169831	1.170220	-5.851102
Zr	1.169831	-1.170220	-5.851102
Zr	-3.509493	1.170220	-8.191543
Au	0.000000	4.680882	-4.680882
Au	2.339662	2.340441	-7.021322
O	3.710164	3.712076	-5.649687
O	-0.969160	5.649687	-8.392957
O	0.969160	3.712076	-8.392957
O	1.370502	6.052516	-6.052516
O	5.648483	5.649687	-5.649687
O	1.370502	7.990128	-7.990128
O	3.308821	7.990128	-6.052516
O	3.308821	6.052516	-7.990128
Zr	-1.169831	3.510661	-8.191543
Zr	3.509493	5.851102	-5.851102
Zr	5.849155	3.510661	-5.851102
Zr	1.169831	5.851102	-8.191543
Au	4.679324	-4.680882	0.000000
Au	7.018986	-7.021322	-2.340441
O	8.389488	-5.649687	-0.968806
O	3.710164	-3.712076	-3.712076
O	5.648483	-5.649687	-3.712076
O	6.049826	-3.309247	-1.371635
O	10.327807	-3.712076	-0.968806
O	6.049826	-1.371635	-3.309247
O	7.988145	-1.371635	-1.371635
O	7.988145	-3.309247	-3.309247
Zr	3.509493	-5.851102	-3.510661
Zr	8.188817	-3.510661	-1.170220
Zr	10.528479	-5.851102	-1.170220
Zr	5.849155	-3.510661	-3.510661
Au	9.358648	0.000000	0.000000
Au	11.698310	-2.340441	-2.340441
O	13.068812	-0.968806	-0.968806
O	8.389488	0.968806	-3.712076
O	10.327807	-0.968806	-3.712076
O	10.729150	1.371635	-1.371635
O	15.007131	0.968806	-0.968806
O	10.729150	3.309247	-3.309247
O	12.667469	3.309247	-1.371635
O	12.667469	1.371635	-3.309247
Zr	8.188817	-1.170220	-3.510661
Zr	12.868141	1.170220	-1.170220
Zr	15.207803	-1.170220	-1.170220
Zr	10.528479	1.170220	-3.510661
Au	0.000000	-4.680882	-4.680882
Au	2.339662	-7.021322	-7.021322
O	3.710164	-5.649687	-5.649687
O	-0.969160	-3.712076	-8.392957
O	0.969160	-5.649687	-8.392957
O	1.370502	-3.309247	-6.052516
O	5.648483	-3.712076	-5.649687
O	1.370502	-1.371635	-7.990128
O	3.308821	-1.371635	-6.052516
O	3.308821	-3.309247	-7.990128
Zr	-1.169831	-5.851102	-8.191543
Zr	3.509493	-3.510661	-5.851102
Zr	5.849155	-5.851102	-5.851102
Zr	1.169831	-3.510661	-8.191543
Au	4.679324	0.000000	-4.680882
Au	7.018986	-2.340441	-7.021322
O	8.389488	-0.968806	-5.649687
O	3.710164	0.968806	-8.392957
O	5.648483	-0.968806	-8.392957
O	6.049826	1.371635	-6.052516
O	10.327807	0.968806	-5.649687
O	6.049826	3.309247	-7.990128
O	7.988145	3.309247	-6.052516
O	7.988145	1.371635	-7.990128
Zr	3.509493	-1.170220	-8.191543
Zr	8.188817	1.170220	-5.851102
Zr	10.528479	-1.170220	-5.851102
Zr	5.849155	1.170220	-8.191543
