40

Ga	0.000000	0.000000	0.000000
O	0.000000	2.113919	2.113919
O	2.113919	0.000000	2.113919
O	2.113919	2.113919	0.000000
Tl	2.113919	2.113919	2.113919
Ga	0.000000	0.000000	4.227839
O	0.000000	2.113919	6.341758
O	2.113919	0.000000	6.341758
O	2.113919	2.113919	4.227839
Tl	2.113919	2.113919	6.341758
Ga	0.000000	4.227839	0.000000
O	0.000000	6.341758	2.113919
O	2.113919	4.227839	2.113919
O	2.113919	6.341758	0.000000
Tl	2.113919	6.341758	2.113919
Ga	0.000000	4.227839	4.227839
O	0.000000	6.341758	6.341758
O	2.113919	4.227839	6.341758
O	2.113919	6.341758	4.227839
Tl	2.113919	6.341758	6.341758
Ga	4.227839	0.000000	0.000000
O	4.227839	2.113919	2.113919
O	6.341758	0.000000	2.113919
O	6.341758	2.113919	0.000000
Tl	6.341758	2.113919	2.113919
Ga	4.227839	0.000000	4.227839
O	4.227839	2.113919	6.341758
O	6.341758	0.000000	6.341758
O	6.341758	2.113919	4.227839
Tl	6.341758	2.113919	6.341758
Ga	4.227839	4.227839	0.000000
O	4.227839	6.341758	2.113919
O	6.341758	4.227839	2.113919
O	6.341758	6.341758	0.000000
Tl	6.341758	6.341758	2.113919
Ga	4.227839	4.227839	4.227839
O	4.227839	6.341758	6.341758
O	6.341758	4.227839	6.341758
O	6.341758	6.341758	4.227839
Tl	6.341758	6.341758	6.341758
