40

Er	0.000000	0.000000	0.000000
O	1.951206	1.951206	0.000000
O	1.951206	0.000000	1.951206
O	0.000000	1.951206	1.951206
Rh	1.951206	1.951206	1.951206
Er	0.000000	0.000000	3.902404
O	1.951206	1.951206	3.902404
O	1.951206	0.000000	5.853610
O	0.000000	1.951206	5.853610
Rh	1.951206	1.951206	5.853610
Er	0.000000	3.902404	0.000000
O	1.951206	5.853610	0.000000
O	1.951206	3.902404	1.951206
O	0.000000	5.853610	1.951206
Rh	1.951206	5.853610	1.951206
Er	0.000000	3.902404	3.902404
O	1.951206	5.853610	3.902404
O	1.951206	3.902404	5.853610
O	0.000000	5.853610	5.853610
Rh	1.951206	5.853610	5.853610
Er	3.902404	0.000000	0.000000
O	5.853610	1.951206	0.000000
O	5.853610	0.000000	1.951206
O	3.902404	1.951206	1.951206
Rh	5.853610	1.951206	1.951206
Er	3.902404	0.000000	3.902404
O	5.853610	1.951206	3.902404
O	5.853610	0.000000	5.853610
O	3.902404	1.951206	5.853610
Rh	5.853610	1.951206	5.853610
Er	3.902404	3.902404	0.000000
O	5.853610	5.853610	0.000000
O	5.853610	3.902404	1.951206
O	3.902404	5.853610	1.951206
Rh	5.853610	5.853610	1.951206
Er	3.902404	3.902404	3.902404
O	5.853610	5.853610	3.902404
O	5.853610	3.902404	5.853610
O	3.902404	5.853610	5.853610
Rh	5.853610	5.853610	5.853610
