40

Er	0.000000	0.000000	0.000000
O	1.950740	0.000000	1.950740
O	0.000000	1.950740	1.950740
O	1.950740	1.950740	0.000000
Rh	1.950740	1.950740	1.950740
Er	0.000000	0.000000	3.901486
O	1.950740	0.000000	5.852226
O	0.000000	1.950740	5.852226
O	1.950740	1.950740	3.901486
Rh	1.950740	1.950740	5.852226
Er	0.000000	3.901486	0.000000
O	1.950740	3.901486	1.950740
O	0.000000	5.852226	1.950740
O	1.950740	5.852226	0.000000
Rh	1.950740	5.852226	1.950740
Er	0.000000	3.901486	3.901486
O	1.950740	3.901486	5.852226
O	0.000000	5.852226	5.852226
O	1.950740	5.852226	3.901486
Rh	1.950740	5.852226	5.852226
Er	3.901486	0.000000	0.000000
O	5.852226	0.000000	1.950740
O	3.901486	1.950740	1.950740
O	5.852226	1.950740	0.000000
Rh	5.852226	1.950740	1.950740
Er	3.901486	0.000000	3.901486
O	5.852226	0.000000	5.852226
O	3.901486	1.950740	5.852226
O	5.852226	1.950740	3.901486
Rh	5.852226	1.950740	5.852226
Er	3.901486	3.901486	0.000000
O	5.852226	3.901486	1.950740
O	3.901486	5.852226	1.950740
O	5.852226	5.852226	0.000000
Rh	5.852226	5.852226	1.950740
Er	3.901486	3.901486	3.901486
O	5.852226	3.901486	5.852226
O	3.901486	5.852226	5.852226
O	5.852226	5.852226	3.901486
Rh	5.852226	5.852226	5.852226
