112

Cu	0.000000	0.000000	0.000000
Cu	2.096858	-2.097076	-2.097076
O	3.240268	-0.953058	-0.953058
O	-0.953449	0.953058	-3.241094
O	0.953449	-0.953058	-3.241094
O	1.143410	1.144018	-1.144018
O	5.147166	0.953058	-0.953058
O	1.143410	3.050133	-3.050133
O	3.050307	3.050133	-1.144018
O	3.050307	1.144018	-3.050133
V	-1.048429	-1.048538	-3.145614
V	3.145288	1.048538	-1.048538
V	5.242146	-1.048538	-1.048538
V	1.048429	1.048538	-3.145614
Cu	4.193717	4.194151	0.000000
Cu	6.290575	2.097076	-2.097076
O	7.433985	3.241094	-0.953058
O	3.240268	5.147209	-3.241094
O	5.147166	3.241094	-3.241094
O	5.337127	5.338170	-1.144018
O	9.340883	5.147209	-0.953058
O	5.337127	7.244285	-3.050133
O	7.244024	7.244285	-1.144018
O	7.244024	5.338170	-3.050133
V	3.145288	3.145614	-3.145614
V	7.339005	5.242689	-1.048538
V	9.435863	3.145614	-1.048538
V	5.242146	5.242689	-3.145614
Cu	-4.193717	0.000000	-4.194151
Cu	-2.096858	-2.097076	-6.291227
O	-0.953449	-0.953058	-5.147209
O	-5.147166	0.953058	-7.435245
O	-3.240268	-0.953058	-7.435245
O	-3.050307	1.144018	-5.338170
O	0.953449	0.953058	-5.147209
O	-3.050307	3.050133	-7.244285
O	-1.143410	3.050133	-5.338170
O	-1.143410	1.144018	-7.244285
V	-5.242146	-1.048538	-7.339765
V	-1.048429	1.048538	-5.242689
V	1.048429	-1.048538	-5.242689
V	-3.145288	1.048538	-7.339765
Cu	0.000000	4.194151	-4.194151
Cu	2.096858	2.097076	-6.291227
O	3.240268	3.241094	-5.147209
O	-0.953449	5.147209	-7.435245
O	0.953449	3.241094	-7.435245
O	1.143410	5.338170	-5.338170
O	5.147166	5.147209	-5.147209
O	1.143410	7.244285	-7.244285
O	3.050307	7.244285	-5.338170
O	3.050307	5.338170	-7.244285
V	-1.048429	3.145614	-7.339765
V	3.145288	5.242689	-5.242689
V	5.242146	3.145614	-5.242689
V	1.048429	5.242689	-7.339765
Cu	4.193717	-4.194151	0.000000
Cu	6.290575	-6.291227	-2.097076
O	7.433985	-5.147209	-0.953058
O	3.240268	-3.241094	-3.241094
O	5.147166	-5.147209	-3.241094
O	5.337127	-3.050133	-1.144018
O	9.340883	-3.241094	-0.953058
O	5.337127	-1.144018	-3.050133
O	7.244024	-1.144018	-1.144018
O	7.244024	-3.050133	-3.050133
V	3.145288	-5.242689	-3.145614
V	7.339005	-3.145614	-1.048538
V	9.435863	-5.242689	-1.048538
V	5.242146	-3.145614	-3.145614
Cu	8.387434	0.000000	0.000000
Cu	10.484292	-2.097076	-2.097076
O	11.627702	-0.953058	-0.953058
O	7.433985	0.953058	-3.241094
O	9.340883	-0.953058	-3.241094
O	9.530843	1.144018	-1.144018
O	13.534600	0.953058	-0.953058
O	9.530843	3.050133	-3.050133
O	11.437741	3.050133	-1.144018
O	11.437741	1.144018	-3.050133
V	7.339005	-1.048538	-3.145614
V	11.532722	1.048538	-1.048538
V	13.629580	-1.048538	-1.048538
V	9.435863	1.048538	-3.145614
Cu	0.000000	-4.194151	-4.194151
Cu	2.096858	-6.291227	-6.291227
O	3.240268	-5.147209	-5.147209
O	-0.953449	-3.241094	-7.435245
O	0.953449	-5.147209	-7.435245
O	1.143410	-3.050133	-5.338170
O	5.147166	-3.241094	-5.147209
O	1.143410	-1.144018	-7.244285
O	3.050307	-1.144018	-5.338170
O	3.050307	-3.050133	-7.244285
V	-1.048429	-5.242689	-7.339765
V	3.145288	-3.145614	-5.242689
V	5.242146	-5.242689	-5.242689
V	1.048429	-3.145614	-7.339765
Cu	4.193717	0.000000	-4.194151
Cu	6.290575	-2.097076	-6.291227
O	7.433985	-0.953058	-5.147209
O	3.240268	0.953058	-7.435245
O	5.147166	-0.953058	-7.435245
O	5.337127	1.144018	-5.338170
O	9.340883	0.953058	-5.147209
O	5.337127	3.050133	-7.244285
O	7.244024	3.050133	-5.338170
O	7.244024	1.144018	-7.244285
V	3.145288	-1.048538	-7.339765
V	7.339005	1.048538	-5.242689
V	9.435863	-1.048538	-5.242689
V	5.242146	1.048538	-7.339765
