40

O	1.929910	1.929910	0.000000
O	0.000000	1.929910	1.929910
O	1.929910	0.000000	1.929910
Tc	1.929910	1.929910	1.929910
Zn	0.000000	0.000000	0.000000
O	1.929910	1.929910	3.859828
O	0.000000	1.929910	5.789738
O	1.929910	0.000000	5.789738
Tc	1.929910	1.929910	5.789738
Zn	0.000000	0.000000	3.859828
O	1.929910	5.789738	0.000000
O	0.000000	5.789738	1.929910
O	1.929910	3.859828	1.929910
Tc	1.929910	5.789738	1.929910
Zn	0.000000	3.859828	0.000000
O	1.929910	5.789738	3.859828
O	0.000000	5.789738	5.789738
O	1.929910	3.859828	5.789738
Tc	1.929910	5.789738	5.789738
Zn	0.000000	3.859828	3.859828
O	5.789738	1.929910	0.000000
O	3.859828	1.929910	1.929910
O	5.789738	0.000000	1.929910
Tc	5.789738	1.929910	1.929910
Zn	3.859828	0.000000	0.000000
O	5.789738	1.929910	3.859828
O	3.859828	1.929910	5.789738
O	5.789738	0.000000	5.789738
Tc	5.789738	1.929910	5.789738
Zn	3.859828	0.000000	3.859828
O	5.789738	5.789738	0.000000
O	3.859828	5.789738	1.929910
O	5.789738	3.859828	1.929910
Tc	5.789738	5.789738	1.929910
Zn	3.859828	3.859828	0.000000
O	5.789738	5.789738	3.859828
O	3.859828	5.789738	5.789738
O	5.789738	3.859828	5.789738
Tc	5.789738	5.789738	5.789738
Zn	3.859828	3.859828	3.859828
