40

Mo	2.000323	2.000323	2.000323
O	0.000000	2.000323	2.000323
O	2.000323	0.000000	2.000323
O	2.000323	2.000323	0.000000
Se	0.000000	0.000000	0.000000
Mo	2.000323	2.000323	6.000970
O	0.000000	2.000323	6.000970
O	2.000323	0.000000	6.000970
O	2.000323	2.000323	4.000647
Se	0.000000	0.000000	4.000647
Mo	2.000323	6.000970	2.000323
O	0.000000	6.000970	2.000323
O	2.000323	4.000647	2.000323
O	2.000323	6.000970	0.000000
Se	0.000000	4.000647	0.000000
Mo	2.000323	6.000970	6.000970
O	0.000000	6.000970	6.000970
O	2.000323	4.000647	6.000970
O	2.000323	6.000970	4.000647
Se	0.000000	4.000647	4.000647
Mo	6.000970	2.000323	2.000323
O	4.000647	2.000323	2.000323
O	6.000970	0.000000	2.000323
O	6.000970	2.000323	0.000000
Se	4.000647	0.000000	0.000000
Mo	6.000970	2.000323	6.000970
O	4.000647	2.000323	6.000970
O	6.000970	0.000000	6.000970
O	6.000970	2.000323	4.000647
Se	4.000647	0.000000	4.000647
Mo	6.000970	6.000970	2.000323
O	4.000647	6.000970	2.000323
O	6.000970	4.000647	2.000323
O	6.000970	6.000970	0.000000
Se	4.000647	4.000647	0.000000
Mo	6.000970	6.000970	6.000970
O	4.000647	6.000970	6.000970
O	6.000970	4.000647	6.000970
O	6.000970	6.000970	4.000647
Se	4.000647	4.000647	4.000647
