152

Cu	1.573088	2.724516	-2.224774
Cu	-1.571527	2.721939	2.222707
Cu	3.146053	0.000048	2.224777
Sb	6.291386	0.001363	1.113400
Sb	-1.572251	2.723208	-1.113409
Sb	1.573796	2.723262	1.111351
Sb	3.145339	0.001300	-1.111375
O	4.137795	1.713011	-1.650325
O	-0.990185	3.733486	3.873028
O	2.969742	3.736224	0.002063
O	0.407262	2.716806	-0.575676
O	2.558644	1.006934	0.575876
O	-1.748729	4.439550	-0.006450
O	1.577748	4.743825	-2.231142
O	0.588971	4.439546	1.646825
O	0.177868	1.710271	2.220629
O	2.740357	2.729678	2.798376
O	4.896322	1.006960	2.229162
O	1.569848	0.702678	4.453838
Cu	1.574535	2.721989	4.447470
Cu	-1.570080	2.719412	8.894952
Cu	3.147500	-0.002479	8.897022
Sb	6.292833	-0.001163	7.785644
Sb	-1.570803	2.720681	5.558836
Sb	1.575244	2.720735	7.783596
Sb	3.146787	-0.001227	5.560870
O	4.139243	1.710484	5.021920
O	-0.988738	3.730959	10.545273
O	2.971190	3.733697	6.674308
O	0.408710	2.714279	6.096569
O	2.560091	1.004407	7.248120
O	-1.747282	4.437024	6.665795
O	1.579195	4.741298	4.441103
O	0.590418	4.437019	8.319070
O	0.179316	1.707744	8.892874
O	2.741805	2.727151	9.470621
O	4.897769	1.004433	8.901407
O	1.571296	0.700151	11.126083
Cu	-1.571420	8.170908	-4.451602
Cu	-4.716035	8.168330	-0.004120
Cu	0.001545	5.446439	-0.002050
Sb	3.146878	5.447755	-1.113428
Sb	-4.716759	8.169600	-3.340236
Sb	-1.570712	8.169653	-1.115476
Sb	0.000831	5.447691	-3.338202
O	0.993287	7.159403	-3.877152
O	-4.134693	9.179878	1.646201
O	-0.174766	9.182616	-2.224764
O	-2.737246	8.163198	-2.802503
O	-0.585864	6.453325	-1.650952
O	-4.893237	9.885942	-2.233277
O	-1.566760	10.190216	-4.457969
O	-2.555537	9.885937	-0.580002
O	-2.966640	7.156662	-0.006198
O	-0.404151	8.176069	0.571548
O	1.751814	6.453352	0.002335
O	-1.574660	6.149069	2.227011
Cu	-1.569973	8.168381	2.220643
Cu	-4.714588	8.165804	6.668125
Cu	0.002992	5.443912	6.670195
Sb	3.148325	5.445228	5.558817
Sb	-4.715311	8.167073	3.332009
Sb	-1.569264	8.167126	5.556769
Sb	0.002279	5.445164	3.334043
O	0.994735	7.156876	2.795093
O	-4.133246	9.177351	8.318446
O	-0.173318	9.180089	4.447481
O	-2.735798	8.160671	3.869741
O	-0.584417	6.450799	5.021293
O	-4.891790	9.883415	4.438968
O	-1.565313	10.187689	2.214276
O	-2.554090	9.883410	6.092243
O	-2.965192	7.154135	6.666047
O	-0.402703	8.173542	7.243793
O	1.753261	6.450825	6.674580
O	-1.573212	6.146542	8.899255
Cu	7.863757	2.727148	-4.447493
Cu	4.719142	2.724570	-0.000011
Cu	9.436722	0.002679	0.002059
Sb	12.582055	0.003995	-1.109319
Sb	4.718418	2.725839	-3.336127
Sb	7.864465	2.725893	-1.111367
Sb	9.436008	0.003931	-3.334093
O	10.428464	1.715642	-3.873043
O	5.300484	3.736118	1.650309
O	9.260411	3.738855	-2.220655
O	6.697931	2.719437	-2.798395
O	8.849313	1.009565	-1.646843
O	4.541940	4.442182	-2.229168
O	7.868417	4.746456	-4.453860
O	6.879640	4.442177	-0.575893
O	6.468537	1.712902	-0.002089
O	9.031026	2.732309	0.575657
O	11.186991	1.009591	0.006444
O	7.860517	0.705309	2.231119
Cu	7.865204	2.724621	2.224752
Cu	4.720590	2.722043	6.672234
Cu	9.438170	0.000152	6.674304
Sb	12.583502	0.001468	5.562926
Sb	4.719866	2.723312	3.336118
Sb	7.865913	2.723366	5.560878
Sb	9.437456	0.001404	3.338151
O	10.429912	1.713115	2.799201
O	5.301932	3.733591	8.322554
O	9.261859	3.736328	4.451590
O	6.699379	2.716911	3.873850
O	8.850760	1.007038	5.025402
O	4.543387	4.439655	4.443077
O	7.869864	4.743929	2.218385
O	6.881087	4.439650	6.096352
O	6.469985	1.710375	6.670156
O	9.032474	2.729782	7.247902
O	11.188438	1.007064	6.678689
O	7.861965	0.702782	8.903364
Cu	4.719249	8.173539	-6.674320
Cu	1.574634	8.170962	-2.226838
Cu	6.292214	5.449071	-2.224768
Sb	9.437547	5.450386	-3.336146
Sb	1.573910	8.172231	-5.562955
Sb	4.719957	8.172285	-3.338195
Sb	6.291500	5.450323	-5.560921
O	7.283956	7.162034	-6.099871
O	2.155976	9.182509	-0.576518
O	6.115903	9.185247	-4.447482
O	3.553423	8.165829	-5.025222
O	5.704805	6.455957	-3.873670
O	1.397432	9.888573	-4.455996
O	4.723909	10.192848	-6.680687
O	3.735132	9.888568	-2.802720
O	3.324029	7.159294	-2.228916
O	5.886518	8.178701	-1.651170
O	8.042483	6.455983	-2.220383
O	4.716009	6.151701	0.004292
Cu	4.720696	8.171012	-0.002075
Cu	1.576081	8.168435	4.445407
Cu	6.293661	5.446544	4.447477
Sb	9.438994	5.447859	3.336099
Sb	1.575358	8.169704	1.109290
Sb	4.721405	8.169758	3.334050
Sb	6.292948	5.447796	1.111324
O	7.285404	7.159507	0.572374
O	2.157424	9.179982	6.095727
O	6.117351	9.182720	2.224763
O	3.554871	8.163302	1.647023
O	5.706252	6.453430	2.798575
O	1.398879	9.886046	2.216249
O	4.725356	10.190321	-0.008442
O	3.736579	9.886042	3.869524
O	3.325477	7.156767	4.443329
O	5.887966	8.176174	5.021075
O	8.043930	6.453456	4.451861
O	4.717457	6.149174	6.676537
