112

Ac	0.000000	0.000000	0.000000
Ac	2.527575	-2.528183	-2.528183
O	3.924731	-1.129894	-1.129894
O	-1.130420	1.129894	-3.926472
O	1.130420	-1.129894	-3.926472
O	1.397156	1.398289	-1.398289
O	6.185570	1.129894	-1.129894
O	1.397156	3.658078	-3.658078
O	3.657995	3.658078	-1.398289
O	3.657995	1.398289	-3.658078
Sb	-1.263788	-1.264092	-3.792275
Sb	3.791363	1.264092	-1.264092
Sb	6.318938	-1.264092	-1.264092
Sb	1.263788	1.264092	-3.792275
Ac	5.055150	5.056367	0.000000
Ac	7.582726	2.528183	-2.528183
O	8.979881	3.926472	-1.129894
O	3.924731	6.186261	-3.926472
O	6.185570	3.926472	-3.926472
O	6.452306	6.454655	-1.398289
O	11.240720	6.186261	-1.129894
O	6.452306	8.714444	-3.658078
O	8.713145	8.714444	-1.398289
O	8.713145	6.454655	-3.658078
Sb	3.791363	3.792275	-3.792275
Sb	8.846513	6.320458	-1.264092
Sb	11.374088	3.792275	-1.264092
Sb	6.318938	6.320458	-3.792275
Ac	-5.055150	0.000000	-5.056367
Ac	-2.527575	-2.528183	-7.584550
O	-1.130420	-1.129894	-6.186261
O	-6.185570	1.129894	-8.982839
O	-3.924731	-1.129894	-8.982839
O	-3.657995	1.398289	-6.454655
O	1.130420	1.129894	-6.186261
O	-3.657995	3.658078	-8.714444
O	-1.397156	3.658078	-6.454655
O	-1.397156	1.398289	-8.714444
Sb	-6.318938	-1.264092	-8.848641
Sb	-1.263788	1.264092	-6.320458
Sb	1.263788	-1.264092	-6.320458
Sb	-3.791363	1.264092	-8.848641
Ac	0.000000	5.056367	-5.056367
Ac	2.527575	2.528183	-7.584550
O	3.924731	3.926472	-6.186261
O	-1.130420	6.186261	-8.982839
O	1.130420	3.926472	-8.982839
O	1.397156	6.454655	-6.454655
O	6.185570	6.186261	-6.186261
O	1.397156	8.714444	-8.714444
O	3.657995	8.714444	-6.454655
O	3.657995	6.454655	-8.714444
Sb	-1.263788	3.792275	-8.848641
Sb	3.791363	6.320458	-6.320458
Sb	6.318938	3.792275	-6.320458
Sb	1.263788	6.320458	-8.848641
Ac	5.055150	-5.056367	0.000000
Ac	7.582726	-7.584550	-2.528183
O	8.979881	-6.186261	-1.129894
O	3.924731	-3.926472	-3.926472
O	6.185570	-6.186261	-3.926472
O	6.452306	-3.658078	-1.398289
O	11.240720	-3.926472	-1.129894
O	6.452306	-1.398289	-3.658078
O	8.713145	-1.398289	-1.398289
O	8.713145	-3.658078	-3.658078
Sb	3.791363	-6.320458	-3.792275
Sb	8.846513	-3.792275	-1.264092
Sb	11.374088	-6.320458	-1.264092
Sb	6.318938	-3.792275	-3.792275
Ac	10.110301	0.000000	0.000000
Ac	12.637876	-2.528183	-2.528183
O	14.035031	-1.129894	-1.129894
O	8.979881	1.129894	-3.926472
O	11.240720	-1.129894	-3.926472
O	11.507456	1.398289	-1.398289
O	16.295871	1.129894	-1.129894
O	11.507456	3.658078	-3.658078
O	13.768295	3.658078	-1.398289
O	13.768295	1.398289	-3.658078
Sb	8.846513	-1.264092	-3.792275
Sb	13.901663	1.264092	-1.264092
Sb	16.429239	-1.264092	-1.264092
Sb	11.374088	1.264092	-3.792275
Ac	0.000000	-5.056367	-5.056367
Ac	2.527575	-7.584550	-7.584550
O	3.924731	-6.186261	-6.186261
O	-1.130420	-3.926472	-8.982839
O	1.130420	-6.186261	-8.982839
O	1.397156	-3.658078	-6.454655
O	6.185570	-3.926472	-6.186261
O	1.397156	-1.398289	-8.714444
O	3.657995	-1.398289	-6.454655
O	3.657995	-3.658078	-8.714444
Sb	-1.263788	-6.320458	-8.848641
Sb	3.791363	-3.792275	-6.320458
Sb	6.318938	-6.320458	-6.320458
Sb	1.263788	-3.792275	-8.848641
Ac	5.055150	0.000000	-5.056367
Ac	7.582726	-2.528183	-7.584550
O	8.979881	-1.129894	-6.186261
O	3.924731	1.129894	-8.982839
O	6.185570	-1.129894	-8.982839
O	6.452306	1.398289	-6.454655
O	11.240720	1.129894	-6.186261
O	6.452306	3.658078	-8.714444
O	8.713145	3.658078	-6.454655
O	8.713145	1.398289	-8.714444
Sb	3.791363	-1.264092	-8.848641
Sb	8.846513	1.264092	-6.320458
Sb	11.374088	-1.264092	-6.320458
Sb	6.318938	1.264092	-8.848641
