48

Cl	0.000000	0.000000	0.000000
Na_pv	3.680340	3.680340	3.680340
O	0.845290	0.845290	0.845290
O	2.835050	2.835050	0.845290
O	0.845290	2.835050	2.835050
O	2.835050	0.845290	2.835050
Cl	3.680336	3.680336	0.000000
Na_pv	7.360676	7.360676	3.680340
O	4.525626	4.525626	0.845290
O	6.515386	6.515386	0.845290
O	4.525626	6.515386	2.835050
O	6.515386	4.525626	2.835050
Cl	3.680336	0.000000	3.680336
Na_pv	7.360676	3.680340	7.360676
O	4.525626	0.845290	4.525626
O	6.515386	2.835050	4.525626
O	4.525626	2.835050	6.515386
O	6.515386	0.845290	6.515386
Cl	7.360673	3.680336	3.680336
Na_pv	11.041013	7.360676	7.360676
O	8.205963	4.525626	4.525626
O	10.195723	6.515386	4.525626
O	8.205963	6.515386	6.515386
O	10.195723	4.525626	6.515386
Cl	0.000000	3.680336	3.680336
Na_pv	3.680340	7.360676	7.360676
O	0.845290	4.525626	4.525626
O	2.835050	6.515386	4.525626
O	0.845290	6.515386	6.515386
O	2.835050	4.525626	6.515386
Cl	3.680336	7.360673	3.680336
Na_pv	7.360676	11.041013	7.360676
O	4.525626	8.205963	4.525626
O	6.515386	10.195723	4.525626
O	4.525626	10.195723	6.515386
O	6.515386	8.205963	6.515386
Cl	3.680336	3.680336	7.360673
Na_pv	7.360676	7.360676	11.041013
O	4.525626	4.525626	8.205963
O	6.515386	6.515386	8.205963
O	4.525626	6.515386	10.195723
O	6.515386	4.525626	10.195723
Cl	7.360673	7.360673	7.360673
Na_pv	11.041013	11.041013	11.041013
O	8.205963	8.205963	8.205963
O	10.195723	10.195723	8.205963
O	8.205963	10.195723	10.195723
O	10.195723	8.205963	10.195723
