112

Lu	0.000000	0.000000	0.000000
Lu	2.336827	-2.337276	-2.337276
O	3.546591	-1.126818	-1.126818
O	-1.127054	1.126818	-3.547734
O	1.127054	-1.126818	-3.547734
O	1.209764	1.210458	-1.210458
O	5.800708	1.126818	-1.126818
O	1.209764	3.464094	-3.464094
O	3.463881	3.464094	-1.210458
O	3.463881	1.210458	-3.464094
Yb	-1.168409	-1.168638	-3.505914
Yb	1.168409	1.168638	-3.505914
Yb	3.505236	1.168638	-1.168638
Yb	5.842064	-1.168638	-1.168638
Lu	4.673647	4.674550	0.000000
Lu	7.010474	2.337274	-2.337276
O	8.220238	3.547732	-1.126818
O	3.546593	5.801368	-3.547734
O	5.800701	3.547732	-3.547734
O	5.883411	5.885008	-1.210458
O	10.474355	5.801368	-1.126818
O	5.883411	8.138643	-3.464094
O	8.137528	8.138643	-1.210458
O	8.137528	5.885008	-3.464094
Yb	3.505238	3.505912	-3.505914
Yb	5.842056	5.843188	-3.505914
Yb	8.178883	5.843188	-1.168638
Yb	10.515711	3.505912	-1.168638
Lu	-4.673647	0.000000	-4.674550
Lu	-2.336820	-2.337276	-7.011826
O	-1.127056	-1.126818	-5.801368
O	-5.800701	1.126818	-8.222283
O	-3.546593	-1.126818	-8.222283
O	-3.463883	1.210458	-5.885008
O	1.127061	1.126818	-5.801368
O	-3.463883	3.464094	-8.138643
O	-1.209766	3.464094	-5.885008
O	-1.209766	1.210458	-8.138643
Yb	-5.842056	-1.168638	-8.180463
Yb	-3.505238	1.168638	-8.180463
Yb	-1.168411	1.168638	-5.843188
Yb	1.168417	-1.168638	-5.843188
Lu	0.000000	4.674550	-4.674550
Lu	2.336827	2.337274	-7.011826
O	3.546591	3.547732	-5.801368
O	-1.127054	5.801368	-8.222283
O	1.127054	3.547732	-8.222283
O	1.209764	5.885008	-5.885008
O	5.800708	5.801368	-5.801368
O	1.209764	8.138643	-8.138643
O	3.463881	8.138643	-5.885008
O	3.463881	5.885008	-8.138643
Yb	-1.168409	3.505912	-8.180463
Yb	1.168409	5.843188	-8.180463
Yb	3.505236	5.843188	-5.843188
Yb	5.842064	3.505912	-5.843188
Lu	4.673647	-4.674550	0.000000
Lu	7.010474	-7.011826	-2.337276
O	8.220238	-5.801368	-1.126818
O	3.546593	-3.547732	-3.547734
O	5.800701	-5.801368	-3.547734
O	5.883411	-3.464092	-1.210458
O	10.474355	-3.547732	-1.126818
O	5.883411	-1.210456	-3.464094
O	8.137528	-1.210456	-1.210458
O	8.137528	-3.464092	-3.464094
Yb	3.505238	-5.843188	-3.505914
Yb	5.842056	-3.505912	-3.505914
Yb	8.178883	-3.505912	-1.168638
Yb	10.515711	-5.843188	-1.168638
Lu	9.347294	0.000000	0.000000
Lu	11.684121	-2.337276	-2.337276
O	12.893885	-1.126818	-1.126818
O	8.220240	1.126818	-3.547734
O	10.474348	-1.126818	-3.547734
O	10.557058	1.210458	-1.210458
O	15.148002	1.126818	-1.126818
O	10.557058	3.464094	-3.464094
O	12.811175	3.464094	-1.210458
O	12.811175	1.210458	-3.464094
Yb	8.178885	-1.168638	-3.505914
Yb	10.515703	1.168638	-3.505914
Yb	12.852530	1.168638	-1.168638
Yb	15.189358	-1.168638	-1.168638
Lu	0.000000	-4.674550	-4.674550
Lu	2.336827	-7.011826	-7.011826
O	3.546591	-5.801368	-5.801368
O	-1.127054	-3.547732	-8.222283
O	1.127054	-5.801368	-8.222283
O	1.209764	-3.464092	-5.885008
O	5.800708	-3.547732	-5.801368
O	1.209764	-1.210456	-8.138643
O	3.463881	-1.210456	-5.885008
O	3.463881	-3.464092	-8.138643
Yb	-1.168409	-5.843188	-8.180463
Yb	1.168409	-3.505912	-8.180463
Yb	3.505236	-3.505912	-5.843188
Yb	5.842064	-5.843188	-5.843188
Lu	4.673647	0.000000	-4.674550
Lu	7.010474	-2.337276	-7.011826
O	8.220238	-1.126818	-5.801368
O	3.546593	1.126818	-8.222283
O	5.800701	-1.126818	-8.222283
O	5.883411	1.210458	-5.885008
O	10.474355	1.126818	-5.801368
O	5.883411	3.464094	-8.138643
O	8.137528	3.464094	-5.885008
O	8.137528	1.210458	-8.138643
Yb	3.505238	-1.168638	-8.180463
Yb	5.842056	1.168638	-8.180463
Yb	8.178883	1.168638	-5.843188
Yb	10.515711	-1.168638	-5.843188
