40

As	1.840051	1.840051	1.840051
Li	0.000000	0.000000	0.000000
O	0.000000	1.840051	1.840051
O	1.840051	0.000000	1.840051
O	1.840051	1.840051	0.000000
As	1.840051	1.840051	5.520152
Li	0.000000	0.000000	3.680102
O	0.000000	1.840051	5.520152
O	1.840051	0.000000	5.520152
O	1.840051	1.840051	3.680102
As	1.840051	5.520152	1.840051
Li	0.000000	3.680102	0.000000
O	0.000000	5.520152	1.840051
O	1.840051	3.680102	1.840051
O	1.840051	5.520152	0.000000
As	1.840051	5.520152	5.520152
Li	0.000000	3.680102	3.680102
O	0.000000	5.520152	5.520152
O	1.840051	3.680102	5.520152
O	1.840051	5.520152	3.680102
As	5.520152	1.840051	1.840051
Li	3.680102	0.000000	0.000000
O	3.680102	1.840051	1.840051
O	5.520152	0.000000	1.840051
O	5.520152	1.840051	0.000000
As	5.520152	1.840051	5.520152
Li	3.680102	0.000000	3.680102
O	3.680102	1.840051	5.520152
O	5.520152	0.000000	5.520152
O	5.520152	1.840051	3.680102
As	5.520152	5.520152	1.840051
Li	3.680102	3.680102	0.000000
O	3.680102	5.520152	1.840051
O	5.520152	3.680102	1.840051
O	5.520152	5.520152	0.000000
As	5.520152	5.520152	5.520152
Li	3.680102	3.680102	3.680102
O	3.680102	5.520152	5.520152
O	5.520152	3.680102	5.520152
O	5.520152	5.520152	3.680102
