40

As	0.000000	0.000000	0.000000
Li	1.821612	1.821612	1.821612
O	0.000000	1.821612	1.821612
O	1.821612	0.000000	1.821612
O	1.821612	1.821612	0.000000
As	0.000000	0.000000	3.643225
Li	1.821612	1.821612	5.464837
O	0.000000	1.821612	5.464837
O	1.821612	0.000000	5.464837
O	1.821612	1.821612	3.643225
As	0.000000	3.643225	0.000000
Li	1.821612	5.464837	1.821612
O	0.000000	5.464837	1.821612
O	1.821612	3.643225	1.821612
O	1.821612	5.464837	0.000000
As	0.000000	3.643225	3.643225
Li	1.821612	5.464837	5.464837
O	0.000000	5.464837	5.464837
O	1.821612	3.643225	5.464837
O	1.821612	5.464837	3.643225
As	3.643225	0.000000	0.000000
Li	5.464837	1.821612	1.821612
O	3.643225	1.821612	1.821612
O	5.464837	0.000000	1.821612
O	5.464837	1.821612	0.000000
As	3.643225	0.000000	3.643225
Li	5.464837	1.821612	5.464837
O	3.643225	1.821612	5.464837
O	5.464837	0.000000	5.464837
O	5.464837	1.821612	3.643225
As	3.643225	3.643225	0.000000
Li	5.464837	5.464837	1.821612
O	3.643225	5.464837	1.821612
O	5.464837	3.643225	1.821612
O	5.464837	5.464837	0.000000
As	3.643225	3.643225	3.643225
Li	5.464837	5.464837	5.464837
O	3.643225	5.464837	5.464837
O	5.464837	3.643225	5.464837
O	5.464837	5.464837	3.643225
