40

As	1.839304	1.839304	1.839304
Li	0.000000	0.000000	0.000000
O	0.000000	1.839304	1.839304
O	1.839304	0.000000	1.839304
O	1.839304	1.839304	0.000000
As	1.839304	1.839304	5.517913
Li	0.000000	0.000000	3.678608
O	0.000000	1.839304	5.517913
O	1.839304	0.000000	5.517913
O	1.839304	1.839304	3.678608
As	1.839304	5.517913	1.839304
Li	0.000000	3.678608	0.000000
O	0.000000	5.517913	1.839304
O	1.839304	3.678608	1.839304
O	1.839304	5.517913	0.000000
As	1.839304	5.517913	5.517913
Li	0.000000	3.678608	3.678608
O	0.000000	5.517913	5.517913
O	1.839304	3.678608	5.517913
O	1.839304	5.517913	3.678608
As	5.517913	1.839304	1.839304
Li	3.678608	0.000000	0.000000
O	3.678608	1.839304	1.839304
O	5.517913	0.000000	1.839304
O	5.517913	1.839304	0.000000
As	5.517913	1.839304	5.517913
Li	3.678608	0.000000	3.678608
O	3.678608	1.839304	5.517913
O	5.517913	0.000000	5.517913
O	5.517913	1.839304	3.678608
As	5.517913	5.517913	1.839304
Li	3.678608	3.678608	0.000000
O	3.678608	5.517913	1.839304
O	5.517913	3.678608	1.839304
O	5.517913	5.517913	0.000000
As	5.517913	5.517913	5.517913
Li	3.678608	3.678608	3.678608
O	3.678608	5.517913	5.517913
O	5.517913	3.678608	5.517913
O	5.517913	5.517913	3.678608
