40

O	0.000000	1.857381	1.857381
O	1.857381	0.000000	1.857381
O	1.857381	1.857381	0.000000
V	0.000000	0.000000	0.000000
Zn	1.857381	1.857381	1.857381
O	0.000000	1.857381	5.572142
O	1.857381	0.000000	5.572142
O	1.857381	1.857381	3.714761
V	0.000000	0.000000	3.714761
Zn	1.857381	1.857381	5.572142
O	0.000000	5.572142	1.857381
O	1.857381	3.714761	1.857381
O	1.857381	5.572142	0.000000
V	0.000000	3.714761	0.000000
Zn	1.857381	5.572142	1.857381
O	0.000000	5.572142	5.572142
O	1.857381	3.714761	5.572142
O	1.857381	5.572142	3.714761
V	0.000000	3.714761	3.714761
Zn	1.857381	5.572142	5.572142
O	3.714761	1.857381	1.857381
O	5.572142	0.000000	1.857381
O	5.572142	1.857381	0.000000
V	3.714761	0.000000	0.000000
Zn	5.572142	1.857381	1.857381
O	3.714761	1.857381	5.572142
O	5.572142	0.000000	5.572142
O	5.572142	1.857381	3.714761
V	3.714761	0.000000	3.714761
Zn	5.572142	1.857381	5.572142
O	3.714761	5.572142	1.857381
O	5.572142	3.714761	1.857381
O	5.572142	5.572142	0.000000
V	3.714761	3.714761	0.000000
Zn	5.572142	5.572142	1.857381
O	3.714761	5.572142	5.572142
O	5.572142	3.714761	5.572142
O	5.572142	5.572142	3.714761
V	3.714761	3.714761	3.714761
Zn	5.572142	5.572142	5.572142
