40

Ag	0.000000	0.000000	0.000000
O	1.796480	0.000000	1.796480
O	0.000000	1.796480	1.796480
O	1.796480	1.796480	0.000000
Si	1.796480	1.796480	1.796480
Ag	0.000000	0.000000	3.592975
O	1.796480	0.000000	5.389455
O	0.000000	1.796480	5.389455
O	1.796480	1.796480	3.592975
Si	1.796480	1.796480	5.389455
Ag	0.000000	3.592975	0.000000
O	1.796480	3.592975	1.796480
O	0.000000	5.389455	1.796480
O	1.796480	5.389455	0.000000
Si	1.796480	5.389455	1.796480
Ag	0.000000	3.592975	3.592975
O	1.796480	3.592975	5.389455
O	0.000000	5.389455	5.389455
O	1.796480	5.389455	3.592975
Si	1.796480	5.389455	5.389455
Ag	3.592975	0.000000	0.000000
O	5.389455	0.000000	1.796480
O	3.592975	1.796480	1.796480
O	5.389455	1.796480	0.000000
Si	5.389455	1.796480	1.796480
Ag	3.592975	0.000000	3.592975
O	5.389455	0.000000	5.389455
O	3.592975	1.796480	5.389455
O	5.389455	1.796480	3.592975
Si	5.389455	1.796480	5.389455
Ag	3.592975	3.592975	0.000000
O	5.389455	3.592975	1.796480
O	3.592975	5.389455	1.796480
O	5.389455	5.389455	0.000000
Si	5.389455	5.389455	1.796480
Ag	3.592975	3.592975	3.592975
O	5.389455	3.592975	5.389455
O	3.592975	5.389455	5.389455
O	5.389455	5.389455	3.592975
Si	5.389455	5.389455	5.389455
