112

O	3.553131	-0.850885	-0.850885
O	-0.851186	0.850885	-3.554623
O	0.851186	-0.850885	-3.554623
O	1.350972	1.351869	-1.351869
O	5.255503	0.850885	-0.850885
O	1.350972	3.053639	-3.053639
O	3.053345	3.053639	-1.351869
O	3.053345	1.351869	-3.053639
Sb	0.000000	0.000000	0.000000
Sb	2.202159	-2.202754	-2.202754
Si	-1.101079	-1.101377	-3.304131
Si	3.303238	1.101377	-1.101377
Si	5.505396	-1.101377	-1.101377
Si	1.101079	1.101377	-3.304131
O	7.957448	3.554623	-0.850885
O	3.553131	5.256393	-3.554623
O	5.255503	3.554623	-3.554623
O	5.755290	5.757376	-1.351869
O	9.659820	5.256393	-0.850885
O	5.755290	7.459147	-3.053639
O	7.457662	7.459147	-1.351869
O	7.457662	5.757376	-3.053639
Sb	4.404317	4.405508	0.000000
Sb	6.606476	2.202754	-2.202754
Si	3.303238	3.304131	-3.304131
Si	7.707555	5.506885	-1.101377
Si	9.909714	3.304131	-1.101377
Si	5.505396	5.506885	-3.304131
O	-0.851186	-0.850885	-5.256393
O	-5.255503	0.850885	-7.960130
O	-3.553131	-0.850885	-7.960130
O	-3.053345	1.351869	-5.757376
O	0.851186	0.850885	-5.256393
O	-3.053345	3.053639	-7.459147
O	-1.350972	3.053639	-5.757376
O	-1.350972	1.351869	-7.459147
Sb	-4.404317	0.000000	-4.405508
Sb	-2.202159	-2.202754	-6.608261
Si	-5.505396	-1.101377	-7.709638
Si	-1.101079	1.101377	-5.506885
Si	1.101079	-1.101377	-5.506885
Si	-3.303238	1.101377	-7.709638
O	3.553131	3.554623	-5.256393
O	-0.851186	5.256393	-7.960130
O	0.851186	3.554623	-7.960130
O	1.350972	5.757376	-5.757376
O	5.255503	5.256393	-5.256393
O	1.350972	7.459147	-7.459147
O	3.053345	7.459147	-5.757376
O	3.053345	5.757376	-7.459147
Sb	0.000000	4.405508	-4.405508
Sb	2.202159	2.202754	-6.608261
Si	-1.101079	3.304131	-7.709638
Si	3.303238	5.506885	-5.506885
Si	5.505396	3.304131	-5.506885
Si	1.101079	5.506885	-7.709638
O	7.957448	-5.256393	-0.850885
O	3.553131	-3.554623	-3.554623
O	5.255503	-5.256393	-3.554623
O	5.755290	-3.053639	-1.351869
O	9.659820	-3.554623	-0.850885
O	5.755290	-1.351869	-3.053639
O	7.457662	-1.351869	-1.351869
O	7.457662	-3.053639	-3.053639
Sb	4.404317	-4.405508	0.000000
Sb	6.606476	-6.608261	-2.202754
Si	3.303238	-5.506885	-3.304131
Si	7.707555	-3.304131	-1.101377
Si	9.909714	-5.506885	-1.101377
Si	5.505396	-3.304131	-3.304131
O	12.361765	-0.850885	-0.850885
O	7.957448	0.850885	-3.554623
O	9.659820	-0.850885	-3.554623
O	10.159607	1.351869	-1.351869
O	14.064138	0.850885	-0.850885
O	10.159607	3.053639	-3.053639
O	11.861979	3.053639	-1.351869
O	11.861979	1.351869	-3.053639
Sb	8.808634	0.000000	0.000000
Sb	11.010793	-2.202754	-2.202754
Si	7.707555	-1.101377	-3.304131
Si	12.111872	1.101377	-1.101377
Si	14.314031	-1.101377	-1.101377
Si	9.909714	1.101377	-3.304131
O	3.553131	-5.256393	-5.256393
O	-0.851186	-3.554623	-7.960130
O	0.851186	-5.256393	-7.960130
O	1.350972	-3.053639	-5.757376
O	5.255503	-3.554623	-5.256393
O	1.350972	-1.351869	-7.459147
O	3.053345	-1.351869	-5.757376
O	3.053345	-3.053639	-7.459147
Sb	0.000000	-4.405508	-4.405508
Sb	2.202159	-6.608261	-6.608261
Si	-1.101079	-5.506885	-7.709638
Si	3.303238	-3.304131	-5.506885
Si	5.505396	-5.506885	-5.506885
Si	1.101079	-3.304131	-7.709638
O	7.957448	-0.850885	-5.256393
O	3.553131	0.850885	-7.960130
O	5.255503	-0.850885	-7.960130
O	5.755290	1.351869	-5.757376
O	9.659820	0.850885	-5.256393
O	5.755290	3.053639	-7.459147
O	7.457662	3.053639	-5.757376
O	7.457662	1.351869	-7.459147
Sb	4.404317	0.000000	-4.405508
Sb	6.606476	-2.202754	-6.608261
Si	3.303238	-1.101377	-7.709638
Si	7.707555	1.101377	-5.506885
Si	9.909714	-1.101377	-5.506885
Si	5.505396	1.101377	-7.709638
