96

Bi	0.000000	0.000000	0.000000
O	3.674921	3.674921	0.000000
O	3.674921	0.000000	3.674921
O	0.000000	3.674921	3.674921
Rb	1.987564	1.987564	1.987564
Rb	5.362278	1.987564	1.987564
Rb	1.987564	5.362278	1.987564
Rb	5.362278	5.362278	1.987564
Rb	1.987564	1.987564	5.362278
Rb	5.362278	1.987564	5.362278
Rb	1.987564	5.362278	5.362278
Rb	5.362278	5.362278	5.362278
Bi	0.000000	0.000000	7.349841
O	3.674921	3.674921	7.349841
O	3.674921	0.000000	11.024762
O	0.000000	3.674921	11.024762
Rb	1.987564	1.987564	9.337404
Rb	5.362278	1.987564	9.337404
Rb	1.987564	5.362278	9.337404
Rb	5.362278	5.362278	9.337404
Rb	1.987564	1.987564	12.712119
Rb	5.362278	1.987564	12.712119
Rb	1.987564	5.362278	12.712119
Rb	5.362278	5.362278	12.712119
Bi	0.000000	7.349841	0.000000
O	3.674921	11.024762	0.000000
O	3.674921	7.349841	3.674921
O	0.000000	11.024762	3.674921
Rb	1.987564	9.337404	1.987564
Rb	5.362278	9.337404	1.987564
Rb	1.987564	12.712119	1.987564
Rb	5.362278	12.712119	1.987564
Rb	1.987564	9.337404	5.362278
Rb	5.362278	9.337404	5.362278
Rb	1.987564	12.712119	5.362278
Rb	5.362278	12.712119	5.362278
Bi	0.000000	7.349841	7.349841
O	3.674921	11.024762	7.349841
O	3.674921	7.349841	11.024762
O	0.000000	11.024762	11.024762
Rb	1.987564	9.337404	9.337404
Rb	5.362278	9.337404	9.337404
Rb	1.987564	12.712119	9.337404
Rb	5.362278	12.712119	9.337404
Rb	1.987564	9.337404	12.712119
Rb	5.362278	9.337404	12.712119
Rb	1.987564	12.712119	12.712119
Rb	5.362278	12.712119	12.712119
Bi	7.349841	0.000000	0.000000
O	11.024762	3.674921	0.000000
O	11.024762	0.000000	3.674921
O	7.349841	3.674921	3.674921
Rb	9.337404	1.987564	1.987564
Rb	12.712119	1.987564	1.987564
Rb	9.337404	5.362278	1.987564
Rb	12.712119	5.362278	1.987564
Rb	9.337404	1.987564	5.362278
Rb	12.712119	1.987564	5.362278
Rb	9.337404	5.362278	5.362278
Rb	12.712119	5.362278	5.362278
Bi	7.349841	0.000000	7.349841
O	11.024762	3.674921	7.349841
O	11.024762	0.000000	11.024762
O	7.349841	3.674921	11.024762
Rb	9.337404	1.987564	9.337404
Rb	12.712119	1.987564	9.337404
Rb	9.337404	5.362278	9.337404
Rb	12.712119	5.362278	9.337404
Rb	9.337404	1.987564	12.712119
Rb	12.712119	1.987564	12.712119
Rb	9.337404	5.362278	12.712119
Rb	12.712119	5.362278	12.712119
Bi	7.349841	7.349841	0.000000
O	11.024762	11.024762	0.000000
O	11.024762	7.349841	3.674921
O	7.349841	11.024762	3.674921
Rb	9.337404	9.337404	1.987564
Rb	12.712119	9.337404	1.987564
Rb	9.337404	12.712119	1.987564
Rb	12.712119	12.712119	1.987564
Rb	9.337404	9.337404	5.362278
Rb	12.712119	9.337404	5.362278
Rb	9.337404	12.712119	5.362278
Rb	12.712119	12.712119	5.362278
Bi	7.349841	7.349841	7.349841
O	11.024762	11.024762	7.349841
O	11.024762	7.349841	11.024762
O	7.349841	11.024762	11.024762
Rb	9.337404	9.337404	9.337404
Rb	12.712119	9.337404	9.337404
Rb	9.337404	12.712119	9.337404
Rb	12.712119	12.712119	9.337404
Rb	9.337404	9.337404	12.712119
Rb	12.712119	9.337404	12.712119
Rb	9.337404	12.712119	12.712119
Rb	12.712119	12.712119	12.712119
