112

Ac	0.000000	0.000000	0.000000
Ac	2.541416	-2.540478	-2.540478
O	3.987663	-1.093230	-1.093230
O	-1.095168	1.093230	-3.987726
O	1.095168	-1.093230	-3.987726
O	1.446248	1.447248	-1.447248
O	6.177999	1.093230	-1.093230
O	1.446248	3.633709	-3.633708
O	3.636583	3.633709	-1.447248
O	3.636583	1.447248	-3.633708
Te	-1.270708	-1.270239	-3.810717
Te	3.812123	1.270239	-1.270239
Te	6.353539	-1.270239	-1.270239
Te	1.270708	1.270239	-3.810717
Ac	5.082831	5.080956	0.000000
Ac	7.624247	2.540478	-2.540478
O	9.070495	3.987726	-1.093230
O	3.987663	6.174187	-3.987726
O	6.177999	3.987726	-3.987726
O	6.529079	6.528204	-1.447248
O	11.260830	6.174187	-1.093230
O	6.529079	8.714665	-3.633708
O	8.719414	8.714665	-1.447248
O	8.719414	6.528204	-3.633708
Te	3.812123	3.810717	-3.810717
Te	8.894954	6.351195	-1.270239
Te	11.436370	3.810717	-1.270239
Te	6.353539	6.351195	-3.810717
Ac	-5.082831	0.000000	-5.080956
Ac	-2.541416	-2.540478	-7.621434
O	-1.095168	-1.093230	-6.174187
O	-6.177999	1.093230	-9.068682
O	-3.987663	-1.093230	-9.068682
O	-3.636583	1.447248	-6.528204
O	1.095168	1.093230	-6.174187
O	-3.636583	3.633709	-8.714665
O	-1.446248	3.633709	-6.528204
O	-1.446248	1.447248	-8.714665
Te	-6.353539	-1.270239	-8.891673
Te	-1.270708	1.270239	-6.351195
Te	1.270708	-1.270239	-6.351195
Te	-3.812123	1.270239	-8.891673
Ac	0.000000	5.080956	-5.080956
Ac	2.541416	2.540478	-7.621434
O	3.987663	3.987726	-6.174187
O	-1.095168	6.174187	-9.068682
O	1.095168	3.987726	-9.068682
O	1.446248	6.528204	-6.528204
O	6.177999	6.174187	-6.174187
O	1.446248	8.714665	-8.714665
O	3.636583	8.714665	-6.528204
O	3.636583	6.528204	-8.714665
Te	-1.270708	3.810717	-8.891673
Te	3.812123	6.351195	-6.351195
Te	6.353539	3.810717	-6.351195
Te	1.270708	6.351195	-8.891673
Ac	5.082831	-5.080956	0.000000
Ac	7.624247	-7.621434	-2.540478
O	9.070495	-6.174187	-1.093230
O	3.987663	-3.987726	-3.987726
O	6.177999	-6.174187	-3.987726
O	6.529079	-3.633708	-1.447248
O	11.260830	-3.987726	-1.093230
O	6.529079	-1.447248	-3.633708
O	8.719414	-1.447248	-1.447248
O	8.719414	-3.633708	-3.633708
Te	3.812123	-6.351195	-3.810717
Te	8.894954	-3.810717	-1.270239
Te	11.436370	-6.351195	-1.270239
Te	6.353539	-3.810717	-3.810717
Ac	10.165662	0.000000	0.000000
Ac	12.707078	-2.540478	-2.540478
O	14.153326	-1.093230	-1.093230
O	9.070494	1.093230	-3.987726
O	11.260830	-1.093230	-3.987726
O	11.611910	1.447248	-1.447248
O	16.343661	1.093230	-1.093230
O	11.611910	3.633709	-3.633708
O	13.802245	3.633709	-1.447248
O	13.802246	1.447248	-3.633708
Te	8.894954	-1.270239	-3.810717
Te	13.977786	1.270239	-1.270239
Te	16.519201	-1.270239	-1.270239
Te	11.436370	1.270239	-3.810717
Ac	0.000000	-5.080956	-5.080956
Ac	2.541416	-7.621434	-7.621434
O	3.987663	-6.174187	-6.174187
O	-1.095168	-3.987726	-9.068682
O	1.095168	-6.174187	-9.068682
O	1.446248	-3.633708	-6.528204
O	6.177999	-3.987726	-6.174187
O	1.446248	-1.447248	-8.714665
O	3.636583	-1.447248	-6.528204
O	3.636583	-3.633708	-8.714665
Te	-1.270708	-6.351195	-8.891673
Te	3.812123	-3.810717	-6.351195
Te	6.353539	-6.351195	-6.351195
Te	1.270708	-3.810717	-8.891673
Ac	5.082831	0.000000	-5.080956
Ac	7.624247	-2.540478	-7.621434
O	9.070495	-1.093230	-6.174187
O	3.987663	1.093230	-9.068682
O	6.177999	-1.093230	-9.068682
O	6.529079	1.447248	-6.528204
O	11.260830	1.093230	-6.174187
O	6.529079	3.633709	-8.714665
O	8.719414	3.633709	-6.528204
O	8.719414	1.447248	-8.714665
Te	3.812123	-1.270239	-8.891673
Te	8.894954	1.270239	-6.351195
Te	11.436370	-1.270239	-6.351195
Te	6.353539	1.270239	-8.891673
