440

Zn	2.192687	2.234237	2.234237
Zn	4.426924	0.000000	4.426924
Zn	2.192687	6.619611	6.619611
Zn	4.426924	4.426924	0.000000
Zn	6.661161	2.234237	6.619611
Zn	0.000000	0.000000	0.000000
Zn	6.661161	6.619611	2.234237
Sc	1.109508	7.744984	3.317416
Sc	3.321509	1.105415	7.748433
Sc	3.318060	3.317416	5.536432
Sc	1.109508	1.108864	5.536432
Sc	1.109508	3.317416	7.744984
Sc	3.318060	5.536432	3.317416
Sc	3.321509	7.748433	1.105415
Sc	1.109508	5.536432	1.108864
Sc	5.532339	7.748433	7.748433
Sc	7.744340	1.108864	3.317416
Sc	7.744340	3.317416	1.108864
Sc	5.532339	1.105415	1.105415
Sc	5.535788	3.317416	3.317416
Sc	7.744340	5.536432	7.744984
Sc	7.744340	7.744984	5.536432
Sc	5.535788	5.536432	5.536432
O	3.400620	1.026304	1.026304
O	5.459004	3.402770	5.451078
O	5.453228	1.026304	7.827544
O	3.394844	3.402770	3.402770
O	3.264429	1.162495	5.625501
O	1.198577	7.691353	1.162495
O	1.198577	1.162495	7.691353
O	3.264429	7.691353	3.228347
O	3.394844	5.451078	5.451078
O	5.453228	7.827544	1.026304
O	5.459004	5.451078	3.402770
O	3.400620	7.827544	7.827544
O	3.264429	5.625501	1.162495
O	1.316040	3.110884	5.742964
O	1.316040	5.742964	3.110884
O	3.264429	3.228347	7.691353
O	7.829693	1.032080	5.451078
O	1.024154	3.402770	1.032080
O	1.024154	1.032080	3.402770
O	7.829693	3.402770	7.821768
O	7.655271	1.162495	1.162495
O	5.589419	7.691353	5.625501
O	5.589419	1.162495	3.228347
O	7.655271	7.691353	7.691353
O	7.829693	5.451078	1.032080
O	1.024154	7.821768	5.451078
O	1.024154	5.451078	7.821768
O	7.829693	7.821768	3.402770
O	7.537807	5.742964	5.742964
O	5.589419	3.228347	1.162495
O	5.589419	5.625501	7.691353
O	7.537807	3.110884	3.110884
Zn	2.192687	2.234237	11.088085
Zn	4.426924	0.000000	13.280772
Zn	2.192687	6.619611	15.473458
Zn	4.426924	4.426924	8.853848
Zn	6.661161	2.234237	15.473458
Zn	0.000000	0.000000	8.853848
Zn	6.661161	6.619611	11.088085
Sc	1.109508	7.744984	12.171264
Sc	3.321509	1.105415	16.602280
Sc	3.318060	3.317416	14.390279
Sc	1.109508	1.108864	14.390279
Sc	1.109508	3.317416	16.598831
Sc	3.318060	5.536432	12.171264
Sc	3.321509	7.748433	9.959263
Sc	1.109508	5.536432	9.962712
Sc	5.532339	7.748433	16.602280
Sc	7.744340	1.108864	12.171264
Sc	7.744340	3.317416	9.962712
Sc	5.532339	1.105415	9.959263
Sc	5.535788	3.317416	12.171264
Sc	7.744340	5.536432	16.598831
Sc	7.744340	7.744984	14.390279
Sc	5.535788	5.536432	14.390279
O	3.400620	1.026304	9.880151
O	5.459004	3.402770	14.304926
O	5.453228	1.026304	16.681392
O	3.394844	3.402770	12.256617
O	3.264429	1.162495	14.479348
O	1.198577	7.691353	10.016343
O	1.198577	1.162495	16.545201
O	3.264429	7.691353	12.082195
O	3.394844	5.451078	14.304926
O	5.453228	7.827544	9.880151
O	5.459004	5.451078	12.256617
O	3.400620	7.827544	16.681392
O	3.264429	5.625501	10.016343
O	1.316040	3.110884	14.596812
O	1.316040	5.742964	11.964731
O	3.264429	3.228347	16.545201
O	7.829693	1.032080	14.304926
O	1.024154	3.402770	9.885927
O	1.024154	1.032080	12.256617
O	7.829693	3.402770	16.675616
O	7.655271	1.162495	10.016343
O	5.589419	7.691353	14.479348
O	5.589419	1.162495	12.082195
O	7.655271	7.691353	16.545201
O	7.829693	5.451078	9.885927
O	1.024154	7.821768	14.304926
O	1.024154	5.451078	16.675616
O	7.829693	7.821768	12.256617
O	7.537807	5.742964	14.596812
O	5.589419	3.228347	10.016343
O	5.589419	5.625501	16.545201
O	7.537807	3.110884	11.964731
Zn	2.192687	11.088085	2.234237
Zn	4.426924	8.853848	4.426924
Zn	2.192687	15.473458	6.619611
Zn	4.426924	13.280772	0.000000
Zn	6.661161	11.088085	6.619611
Zn	0.000000	8.853848	0.000000
Zn	6.661161	15.473458	2.234237
Sc	1.109508	16.598831	3.317416
Sc	3.321509	9.959263	7.748433
Sc	3.318060	12.171264	5.536432
Sc	1.109508	9.962712	5.536432
Sc	1.109508	12.171264	7.744984
Sc	3.318060	14.390279	3.317416
Sc	3.321509	16.602280	1.105415
Sc	1.109508	14.390279	1.108864
Sc	5.532339	16.602280	7.748433
Sc	7.744340	9.962712	3.317416
Sc	7.744340	12.171264	1.108864
Sc	5.532339	9.959263	1.105415
Sc	5.535788	12.171264	3.317416
Sc	7.744340	14.390279	7.744984
Sc	7.744340	16.598831	5.536432
Sc	5.535788	14.390279	5.536432
O	3.400620	9.880151	1.026304
O	5.459004	12.256617	5.451078
O	5.453228	9.880151	7.827544
O	3.394844	12.256617	3.402770
O	3.264429	10.016343	5.625501
O	1.198577	16.545201	1.162495
O	1.198577	10.016343	7.691353
O	3.264429	16.545201	3.228347
O	3.394844	14.304926	5.451078
O	5.453228	16.681392	1.026304
O	5.459004	14.304926	3.402770
O	3.400620	16.681392	7.827544
O	3.264429	14.479348	1.162495
O	1.316040	11.964731	5.742964
O	1.316040	14.596812	3.110884
O	3.264429	12.082195	7.691353
O	7.829693	9.885927	5.451078
O	1.024154	12.256617	1.032080
O	1.024154	9.885927	3.402770
O	7.829693	12.256617	7.821768
O	7.655271	10.016343	1.162495
O	5.589419	16.545201	5.625501
O	5.589419	10.016343	3.228347
O	7.655271	16.545201	7.691353
O	7.829693	14.304926	1.032080
O	1.024154	16.675616	5.451078
O	1.024154	14.304926	7.821768
O	7.829693	16.675616	3.402770
O	7.537807	14.596812	5.742964
O	5.589419	12.082195	1.162495
O	5.589419	14.479348	7.691353
O	7.537807	11.964731	3.110884
Zn	2.192687	11.088085	11.088085
Zn	4.426924	8.853848	13.280772
Zn	2.192687	15.473458	15.473458
Zn	4.426924	13.280772	8.853848
Zn	6.661161	11.088085	15.473458
Zn	0.000000	8.853848	8.853848
Zn	6.661161	15.473458	11.088085
Sc	1.109508	16.598831	12.171264
Sc	3.321509	9.959263	16.602280
Sc	3.318060	12.171264	14.390279
Sc	1.109508	9.962712	14.390279
Sc	1.109508	12.171264	16.598831
Sc	3.318060	14.390279	12.171264
Sc	3.321509	16.602280	9.959263
Sc	1.109508	14.390279	9.962712
Sc	5.532339	16.602280	16.602280
Sc	7.744340	9.962712	12.171264
Sc	7.744340	12.171264	9.962712
Sc	5.532339	9.959263	9.959263
Sc	5.535788	12.171264	12.171264
Sc	7.744340	14.390279	16.598831
Sc	7.744340	16.598831	14.390279
Sc	5.535788	14.390279	14.390279
O	3.400620	9.880151	9.880151
O	5.459004	12.256617	14.304926
O	5.453228	9.880151	16.681392
O	3.394844	12.256617	12.256617
O	3.264429	10.016343	14.479348
O	1.198577	16.545201	10.016343
O	1.198577	10.016343	16.545201
O	3.264429	16.545201	12.082195
O	3.394844	14.304926	14.304926
O	5.453228	16.681392	9.880151
O	5.459004	14.304926	12.256617
O	3.400620	16.681392	16.681392
O	3.264429	14.479348	10.016343
O	1.316040	11.964731	14.596812
O	1.316040	14.596812	11.964731
O	3.264429	12.082195	16.545201
O	7.829693	9.885927	14.304926
O	1.024154	12.256617	9.885927
O	1.024154	9.885927	12.256617
O	7.829693	12.256617	16.675616
O	7.655271	10.016343	10.016343
O	5.589419	16.545201	14.479348
O	5.589419	10.016343	12.082195
O	7.655271	16.545201	16.545201
O	7.829693	14.304926	9.885927
O	1.024154	16.675616	14.304926
O	1.024154	14.304926	16.675616
O	7.829693	16.675616	12.256617
O	7.537807	14.596812	14.596812
O	5.589419	12.082195	10.016343
O	5.589419	14.479348	16.545201
O	7.537807	11.964731	11.964731
Zn	11.046534	2.234237	2.234237
Zn	13.280772	0.000000	4.426924
Zn	11.046534	6.619611	6.619611
Zn	13.280772	4.426924	0.000000
Zn	15.515009	2.234237	6.619611
Zn	8.853848	0.000000	0.000000
Zn	15.515009	6.619611	2.234237
Sc	9.963355	7.744984	3.317416
Sc	12.175356	1.105415	7.748433
Sc	12.171907	3.317416	5.536432
Sc	9.963355	1.108864	5.536432
Sc	9.963355	3.317416	7.744984
Sc	12.171907	5.536432	3.317416
Sc	12.175356	7.748433	1.105415
Sc	9.963355	5.536432	1.108864
Sc	14.386187	7.748433	7.748433
Sc	16.598188	1.108864	3.317416
Sc	16.598188	3.317416	1.108864
Sc	14.386187	1.105415	1.105415
Sc	14.389636	3.317416	3.317416
Sc	16.598188	5.536432	7.744984
Sc	16.598188	7.744984	5.536432
Sc	14.389636	5.536432	5.536432
O	12.254468	1.026304	1.026304
O	14.312851	3.402770	5.451078
O	14.307075	1.026304	7.827544
O	12.248692	3.402770	3.402770
O	12.118277	1.162495	5.625501
O	10.052425	7.691353	1.162495
O	10.052425	1.162495	7.691353
O	12.118277	7.691353	3.228347
O	12.248692	5.451078	5.451078
O	14.307075	7.827544	1.026304
O	14.312851	5.451078	3.402770
O	12.254468	7.827544	7.827544
O	12.118277	5.625501	1.162495
O	10.169888	3.110884	5.742964
O	10.169888	5.742964	3.110884
O	12.118277	3.228347	7.691353
O	16.683541	1.032080	5.451078
O	9.878002	3.402770	1.032080
O	9.878002	1.032080	3.402770
O	16.683541	3.402770	7.821768
O	16.509119	1.162495	1.162495
O	14.443266	7.691353	5.625501
O	14.443266	1.162495	3.228347
O	16.509119	7.691353	7.691353
O	16.683541	5.451078	1.032080
O	9.878002	7.821768	5.451078
O	9.878002	5.451078	7.821768
O	16.683541	7.821768	3.402770
O	16.391655	5.742964	5.742964
O	14.443266	3.228347	1.162495
O	14.443266	5.625501	7.691353
O	16.391655	3.110884	3.110884
Zn	11.046534	2.234237	11.088085
Zn	13.280772	0.000000	13.280772
Zn	11.046534	6.619611	15.473458
Zn	13.280772	4.426924	8.853848
Zn	15.515009	2.234237	15.473458
Zn	8.853848	0.000000	8.853848
Zn	15.515009	6.619611	11.088085
Sc	9.963355	7.744984	12.171264
Sc	12.175356	1.105415	16.602280
Sc	12.171907	3.317416	14.390279
Sc	9.963355	1.108864	14.390279
Sc	9.963355	3.317416	16.598831
Sc	12.171907	5.536432	12.171264
Sc	12.175356	7.748433	9.959263
Sc	9.963355	5.536432	9.962712
Sc	14.386187	7.748433	16.602280
Sc	16.598188	1.108864	12.171264
Sc	16.598188	3.317416	9.962712
Sc	14.386187	1.105415	9.959263
Sc	14.389636	3.317416	12.171264
Sc	16.598188	5.536432	16.598831
Sc	16.598188	7.744984	14.390279
Sc	14.389636	5.536432	14.390279
O	12.254468	1.026304	9.880151
O	14.312851	3.402770	14.304926
O	14.307075	1.026304	16.681392
O	12.248692	3.402770	12.256617
O	12.118277	1.162495	14.479348
O	10.052425	7.691353	10.016343
O	10.052425	1.162495	16.545201
O	12.118277	7.691353	12.082195
O	12.248692	5.451078	14.304926
O	14.307075	7.827544	9.880151
O	14.312851	5.451078	12.256617
O	12.254468	7.827544	16.681392
O	12.118277	5.625501	10.016343
O	10.169888	3.110884	14.596812
O	10.169888	5.742964	11.964731
O	12.118277	3.228347	16.545201
O	16.683541	1.032080	14.304926
O	9.878002	3.402770	9.885927
O	9.878002	1.032080	12.256617
O	16.683541	3.402770	16.675616
O	16.509119	1.162495	10.016343
O	14.443266	7.691353	14.479348
O	14.443266	1.162495	12.082195
O	16.509119	7.691353	16.545201
O	16.683541	5.451078	9.885927
O	9.878002	7.821768	14.304926
O	9.878002	5.451078	16.675616
O	16.683541	7.821768	12.256617
O	16.391655	5.742964	14.596812
O	14.443266	3.228347	10.016343
O	14.443266	5.625501	16.545201
O	16.391655	3.110884	11.964731
Zn	11.046534	11.088085	2.234237
Zn	13.280772	8.853848	4.426924
Zn	11.046534	15.473458	6.619611
Zn	13.280772	13.280772	0.000000
Zn	15.515009	11.088085	6.619611
Zn	8.853848	8.853848	0.000000
Zn	15.515009	15.473458	2.234237
Sc	9.963355	16.598831	3.317416
Sc	12.175356	9.959263	7.748433
Sc	12.171907	12.171264	5.536432
Sc	9.963355	9.962712	5.536432
Sc	9.963355	12.171264	7.744984
Sc	12.171907	14.390279	3.317416
Sc	12.175356	16.602280	1.105415
Sc	9.963355	14.390279	1.108864
Sc	14.386187	16.602280	7.748433
Sc	16.598188	9.962712	3.317416
Sc	16.598188	12.171264	1.108864
Sc	14.386187	9.959263	1.105415
Sc	14.389636	12.171264	3.317416
Sc	16.598188	14.390279	7.744984
Sc	16.598188	16.598831	5.536432
Sc	14.389636	14.390279	5.536432
O	12.254468	9.880151	1.026304
O	14.312851	12.256617	5.451078
O	14.307075	9.880151	7.827544
O	12.248692	12.256617	3.402770
O	12.118277	10.016343	5.625501
O	10.052425	16.545201	1.162495
O	10.052425	10.016343	7.691353
O	12.118277	16.545201	3.228347
O	12.248692	14.304926	5.451078
O	14.307075	16.681392	1.026304
O	14.312851	14.304926	3.402770
O	12.254468	16.681392	7.827544
O	12.118277	14.479348	1.162495
O	10.169888	11.964731	5.742964
O	10.169888	14.596812	3.110884
O	12.118277	12.082195	7.691353
O	16.683541	9.885927	5.451078
O	9.878002	12.256617	1.032080
O	9.878002	9.885927	3.402770
O	16.683541	12.256617	7.821768
O	16.509119	10.016343	1.162495
O	14.443266	16.545201	5.625501
O	14.443266	10.016343	3.228347
O	16.509119	16.545201	7.691353
O	16.683541	14.304926	1.032080
O	9.878002	16.675616	5.451078
O	9.878002	14.304926	7.821768
O	16.683541	16.675616	3.402770
O	16.391655	14.596812	5.742964
O	14.443266	12.082195	1.162495
O	14.443266	14.479348	7.691353
O	16.391655	11.964731	3.110884
Zn	11.046534	11.088085	11.088085
Zn	13.280772	8.853848	13.280772
Zn	11.046534	15.473458	15.473458
Zn	13.280772	13.280772	8.853848
Zn	15.515009	11.088085	15.473458
Zn	8.853848	8.853848	8.853848
Zn	15.515009	15.473458	11.088085
Sc	9.963355	16.598831	12.171264
Sc	12.175356	9.959263	16.602280
Sc	12.171907	12.171264	14.390279
Sc	9.963355	9.962712	14.390279
Sc	9.963355	12.171264	16.598831
Sc	12.171907	14.390279	12.171264
Sc	12.175356	16.602280	9.959263
Sc	9.963355	14.390279	9.962712
Sc	14.386187	16.602280	16.602280
Sc	16.598188	9.962712	12.171264
Sc	16.598188	12.171264	9.962712
Sc	14.386187	9.959263	9.959263
Sc	14.389636	12.171264	12.171264
Sc	16.598188	14.390279	16.598831
Sc	16.598188	16.598831	14.390279
Sc	14.389636	14.390279	14.390279
O	12.254468	9.880151	9.880151
O	14.312851	12.256617	14.304926
O	14.307075	9.880151	16.681392
O	12.248692	12.256617	12.256617
O	12.118277	10.016343	14.479348
O	10.052425	16.545201	10.016343
O	10.052425	10.016343	16.545201
O	12.118277	16.545201	12.082195
O	12.248692	14.304926	14.304926
O	14.307075	16.681392	9.880151
O	14.312851	14.304926	12.256617
O	12.254468	16.681392	16.681392
O	12.118277	14.479348	10.016343
O	10.169888	11.964731	14.596812
O	10.169888	14.596812	11.964731
O	12.118277	12.082195	16.545201
O	16.683541	9.885927	14.304926
O	9.878002	12.256617	9.885927
O	9.878002	9.885927	12.256617
O	16.683541	12.256617	16.675616
O	16.509119	10.016343	10.016343
O	14.443266	16.545201	14.479348
O	14.443266	10.016343	12.082195
O	16.509119	16.545201	16.545201
O	16.683541	14.304926	9.885927
O	9.878002	16.675616	14.304926
O	9.878002	14.304926	16.675616
O	16.683541	16.675616	12.256617
O	16.391655	14.596812	14.596812
O	14.443266	12.082195	10.016343
O	14.443266	14.479348	16.545201
O	16.391655	11.964731	11.964731
