112

Mg	0.000000	0.000000	0.000000
Mg	2.135104	-2.135792	-2.135792
O	-1.065086	1.064865	-3.206720
O	3.205121	-1.064865	-1.064865
O	1.065086	-1.064865	-3.206720
O	1.070017	1.070928	-1.070928
O	5.335294	1.064865	-1.064865
O	1.070017	3.200657	-3.200657
O	3.200190	3.200657	-1.070928
O	3.200190	1.070928	-3.200657
W	-1.067547	-1.067896	-3.203689
W	1.067547	1.067896	-3.203689
W	3.202650	1.067896	-1.067896
W	5.337754	-1.067896	-1.067896
Mg	4.270206	4.271591	0.000000
Mg	6.405309	2.135799	-2.135792
O	3.205119	5.336456	-3.206720
O	7.475327	3.206726	-1.064865
O	5.335292	3.206726	-3.206720
O	5.340223	5.342519	-1.070928
O	9.605499	5.336456	-1.064865
O	5.340223	7.472248	-3.200657
O	7.470396	7.472248	-1.070928
O	7.470396	5.342519	-3.200657
W	3.202659	3.203695	-3.203689
W	5.337753	5.339487	-3.203689
W	7.472856	5.339487	-1.067896
W	9.607960	3.203695	-1.067896
Mg	-4.270206	0.000000	-4.271591
Mg	-2.135102	-2.135792	-6.407384
O	-5.335292	1.064865	-7.478311
O	-1.065085	-1.064865	-5.336456
O	-3.205119	-1.064865	-7.478311
O	-3.200188	1.070928	-5.342519
O	1.065088	1.064865	-5.336456
O	-3.200188	3.200657	-7.472248
O	-1.070016	3.200657	-5.342519
O	-1.070016	1.070928	-7.472248
W	-5.337753	-1.067896	-7.475280
W	-3.202659	1.067896	-7.475280
W	-1.067555	1.067896	-5.339487
W	1.067548	-1.067896	-5.339487
Mg	0.000000	4.271591	-4.271591
Mg	2.135104	2.135799	-6.407384
O	-1.065086	5.336456	-7.478311
O	3.205121	3.206726	-5.336456
O	1.065086	3.206726	-7.478311
O	1.070017	5.342519	-5.342519
O	5.335294	5.336456	-5.336456
O	1.070017	7.472248	-7.472248
O	3.200190	7.472248	-5.342519
O	3.200190	5.342519	-7.472248
W	-1.067547	3.203695	-7.475280
W	1.067547	5.339487	-7.475280
W	3.202650	5.339487	-5.339487
W	5.337754	3.203695	-5.339487
Mg	4.270206	-4.271591	0.000000
Mg	6.405309	-6.407384	-2.135792
O	3.205119	-3.206726	-3.206720
O	7.475327	-5.336456	-1.064865
O	5.335292	-5.336456	-3.206720
O	5.340223	-3.200663	-1.070928
O	9.605499	-3.206726	-1.064865
O	5.340223	-1.070934	-3.200657
O	7.470396	-1.070934	-1.070928
O	7.470396	-3.200663	-3.200657
W	3.202659	-5.339487	-3.203689
W	5.337753	-3.203695	-3.203689
W	7.472856	-3.203695	-1.067896
W	9.607960	-5.339487	-1.067896
Mg	8.540411	0.000000	0.000000
Mg	10.675515	-2.135792	-2.135792
O	7.475325	1.064865	-3.206720
O	11.745532	-1.064865	-1.064865
O	9.605498	-1.064865	-3.206720
O	9.610429	1.070928	-1.070928
O	13.875705	1.064865	-1.064865
O	9.610429	3.200657	-3.200657
O	11.740601	3.200657	-1.070928
O	11.740601	1.070928	-3.200657
W	7.472864	-1.067896	-3.203689
W	9.607958	1.067896	-3.203689
W	11.743062	1.067896	-1.067896
W	13.878165	-1.067896	-1.067896
Mg	0.000000	-4.271591	-4.271591
Mg	2.135104	-6.407384	-6.407384
O	-1.065086	-3.206726	-7.478311
O	3.205121	-5.336456	-5.336456
O	1.065086	-5.336456	-7.478311
O	1.070017	-3.200663	-5.342519
O	5.335294	-3.206726	-5.336456
O	1.070017	-1.070934	-7.472248
O	3.200190	-1.070934	-5.342519
O	3.200190	-3.200663	-7.472248
W	-1.067547	-5.339487	-7.475280
W	1.067547	-3.203695	-7.475280
W	3.202650	-3.203695	-5.339487
W	5.337754	-5.339487	-5.339487
Mg	4.270206	0.000000	-4.271591
Mg	6.405309	-2.135792	-6.407384
O	3.205119	1.064865	-7.478311
O	7.475327	-1.064865	-5.336456
O	5.335292	-1.064865	-7.478311
O	5.340223	1.070928	-5.342519
O	9.605499	1.064865	-5.336456
O	5.340223	3.200657	-7.472248
O	7.470396	3.200657	-5.342519
O	7.470396	1.070928	-7.472248
W	3.202659	-1.067896	-7.475280
W	5.337753	1.067896	-7.475280
W	7.472856	1.067896	-5.339487
W	9.607960	-1.067896	-5.339487
