40

Be	1.802100	1.802100	1.802100
O	1.802100	1.802100	0.000000
O	0.000000	1.802100	1.802100
O	1.802100	0.000000	1.802100
Pa	0.000000	0.000000	0.000000
Be	1.802100	1.802100	5.406289
O	1.802100	1.802100	3.604189
O	0.000000	1.802100	5.406289
O	1.802100	0.000000	5.406289
Pa	0.000000	0.000000	3.604189
Be	1.802100	5.406289	1.802100
O	1.802100	5.406289	0.000000
O	0.000000	5.406289	1.802100
O	1.802100	3.604189	1.802100
Pa	0.000000	3.604189	0.000000
Be	1.802100	5.406289	5.406289
O	1.802100	5.406289	3.604189
O	0.000000	5.406289	5.406289
O	1.802100	3.604189	5.406289
Pa	0.000000	3.604189	3.604189
Be	5.406289	1.802100	1.802100
O	5.406289	1.802100	0.000000
O	3.604189	1.802100	1.802100
O	5.406289	0.000000	1.802100
Pa	3.604189	0.000000	0.000000
Be	5.406289	1.802100	5.406289
O	5.406289	1.802100	3.604189
O	3.604189	1.802100	5.406289
O	5.406289	0.000000	5.406289
Pa	3.604189	0.000000	3.604189
Be	5.406289	5.406289	1.802100
O	5.406289	5.406289	0.000000
O	3.604189	5.406289	1.802100
O	5.406289	3.604189	1.802100
Pa	3.604189	3.604189	0.000000
Be	5.406289	5.406289	5.406289
O	5.406289	5.406289	3.604189
O	3.604189	5.406289	5.406289
O	5.406289	3.604189	5.406289
Pa	3.604189	3.604189	3.604189
