40

Ge	0.000000	0.000000	0.000000
Mo	1.966780	1.966780	1.966780
O	1.966780	1.966780	0.000000
O	0.000000	1.966780	1.966780
O	1.966780	0.000000	1.966780
Ge	0.000000	0.000000	3.933558
Mo	1.966780	1.966780	5.900338
O	1.966780	1.966780	3.933558
O	0.000000	1.966780	5.900338
O	1.966780	0.000000	5.900338
Ge	0.000000	3.933558	0.000000
Mo	1.966780	5.900338	1.966780
O	1.966780	5.900338	0.000000
O	0.000000	5.900338	1.966780
O	1.966780	3.933558	1.966780
Ge	0.000000	3.933558	3.933558
Mo	1.966780	5.900338	5.900338
O	1.966780	5.900338	3.933558
O	0.000000	5.900338	5.900338
O	1.966780	3.933558	5.900338
Ge	3.933558	0.000000	0.000000
Mo	5.900338	1.966780	1.966780
O	5.900338	1.966780	0.000000
O	3.933558	1.966780	1.966780
O	5.900338	0.000000	1.966780
Ge	3.933558	0.000000	3.933558
Mo	5.900338	1.966780	5.900338
O	5.900338	1.966780	3.933558
O	3.933558	1.966780	5.900338
O	5.900338	0.000000	5.900338
Ge	3.933558	3.933558	0.000000
Mo	5.900338	5.900338	1.966780
O	5.900338	5.900338	0.000000
O	3.933558	5.900338	1.966780
O	5.900338	3.933558	1.966780
Ge	3.933558	3.933558	3.933558
Mo	5.900338	5.900338	5.900338
O	5.900338	5.900338	3.933558
O	3.933558	5.900338	5.900338
O	5.900338	3.933558	5.900338
