40

Na	1.981792	1.981792	1.981792
O	1.981792	1.981792	0.000000
O	1.981792	0.000000	1.981792
O	0.000000	1.981792	1.981792
Zn	0.000000	0.000000	0.000000
Na	1.981792	1.981792	5.945379
O	1.981792	1.981792	3.963588
O	1.981792	0.000000	5.945379
O	0.000000	1.981792	5.945379
Zn	0.000000	0.000000	3.963588
Na	1.981792	5.945379	1.981792
O	1.981792	5.945379	0.000000
O	1.981792	3.963588	1.981792
O	0.000000	5.945379	1.981792
Zn	0.000000	3.963588	0.000000
Na	1.981792	5.945379	5.945379
O	1.981792	5.945379	3.963588
O	1.981792	3.963588	5.945379
O	0.000000	5.945379	5.945379
Zn	0.000000	3.963588	3.963588
Na	5.945379	1.981792	1.981792
O	5.945379	1.981792	0.000000
O	5.945379	0.000000	1.981792
O	3.963588	1.981792	1.981792
Zn	3.963588	0.000000	0.000000
Na	5.945379	1.981792	5.945379
O	5.945379	1.981792	3.963588
O	5.945379	0.000000	5.945379
O	3.963588	1.981792	5.945379
Zn	3.963588	0.000000	3.963588
Na	5.945379	5.945379	1.981792
O	5.945379	5.945379	0.000000
O	5.945379	3.963588	1.981792
O	3.963588	5.945379	1.981792
Zn	3.963588	3.963588	0.000000
Na	5.945379	5.945379	5.945379
O	5.945379	5.945379	3.963588
O	5.945379	3.963588	5.945379
O	3.963588	5.945379	5.945379
Zn	3.963588	3.963588	3.963588
