112

Ba	0.000000	0.000000	0.000000
Ba	2.452745	-2.453917	-2.453917
Na	-1.226372	-1.226958	-3.680875
Na	3.679108	1.226958	-1.226958
Na	1.226372	1.226958	-3.680875
Na	6.131852	-1.226958	-1.226958
O	-1.092916	1.092452	-3.815381
O	3.812564	-1.092452	-1.092452
O	1.092916	-1.092452	-3.815381
O	1.359819	1.361464	-1.361464
O	5.998396	1.092452	-1.092452
O	1.359819	3.546369	-3.546369
O	3.545661	1.361464	-3.546369
O	3.545661	3.546369	-1.361464
Ba	4.905481	4.907839	0.000000
Ba	7.358226	2.453923	-2.453917
Na	3.679108	3.680881	-3.680875
Na	8.584588	6.134798	-1.226958
Na	6.131853	6.134798	-3.680875
Na	11.037333	3.680881	-1.226958
O	3.812565	6.000292	-3.815381
O	8.718045	3.815387	-1.092452
O	5.998397	3.815387	-3.815381
O	6.265300	6.269304	-1.361464
O	10.903877	6.000292	-1.092452
O	6.265300	8.454209	-3.546369
O	8.451142	6.269304	-3.546369
O	8.451142	8.454209	-1.361464
Ba	-4.905481	0.000000	-4.907839
Ba	-2.452736	-2.453917	-7.361756
Na	-6.131853	-1.226958	-8.588715
Na	-1.226373	1.226958	-6.134798
Na	-3.679108	1.226958	-8.588715
Na	1.226372	-1.226958	-6.134798
O	-5.998397	1.092452	-8.723220
O	-1.092917	-1.092452	-6.000292
O	-3.812565	-1.092452	-8.723220
O	-3.545662	1.361464	-6.269304
O	1.092915	1.092452	-6.000292
O	-3.545662	3.546369	-8.454209
O	-1.359820	1.361464	-8.454209
O	-1.359820	3.546369	-6.269304
Ba	0.000000	4.907839	-4.907839
Ba	2.452745	2.453923	-7.361756
Na	-1.226372	3.680881	-8.588715
Na	3.679108	6.134798	-6.134798
Na	1.226372	6.134798	-8.588715
Na	6.131852	3.680881	-6.134798
O	-1.092916	6.000292	-8.723220
O	3.812564	3.815387	-6.000292
O	1.092916	3.815387	-8.723220
O	1.359819	6.269304	-6.269304
O	5.998396	6.000292	-6.000292
O	1.359819	8.454209	-8.454209
O	3.545661	6.269304	-8.454209
O	3.545661	8.454209	-6.269304
Ba	4.905481	-4.907839	0.000000
Ba	7.358226	-7.361756	-2.453917
Na	3.679108	-6.134798	-3.680875
Na	8.584588	-3.680881	-1.226958
Na	6.131853	-3.680881	-3.680875
Na	11.037333	-6.134798	-1.226958
O	3.812565	-3.815387	-3.815381
O	8.718045	-6.000292	-1.092452
O	5.998397	-6.000292	-3.815381
O	6.265300	-3.546375	-1.361464
O	10.903877	-3.815387	-1.092452
O	6.265300	-1.361470	-3.546369
O	8.451142	-3.546375	-3.546369
O	8.451142	-1.361470	-1.361464
Ba	9.810962	0.000000	0.000000
Ba	12.263707	-2.453917	-2.453917
Na	8.584589	-1.226958	-3.680875
Na	13.490069	1.226958	-1.226958
Na	11.037334	1.226958	-3.680875
Na	15.942814	-1.226958	-1.226958
O	8.718045	1.092452	-3.815381
O	13.623525	-1.092452	-1.092452
O	10.903878	-1.092452	-3.815381
O	11.170780	1.361464	-1.361464
O	15.809358	1.092452	-1.092452
O	11.170780	3.546369	-3.546369
O	13.356623	1.361464	-3.546369
O	13.356623	3.546369	-1.361464
Ba	0.000000	-4.907839	-4.907839
Ba	2.452745	-7.361756	-7.361756
Na	-1.226372	-6.134798	-8.588715
Na	3.679108	-3.680881	-6.134798
Na	1.226372	-3.680881	-8.588715
Na	6.131852	-6.134798	-6.134798
O	-1.092916	-3.815387	-8.723220
O	3.812564	-6.000292	-6.000292
O	1.092916	-6.000292	-8.723220
O	1.359819	-3.546375	-6.269304
O	5.998396	-3.815387	-6.000292
O	1.359819	-1.361470	-8.454209
O	3.545661	-3.546375	-8.454209
O	3.545661	-1.361470	-6.269304
Ba	4.905481	0.000000	-4.907839
Ba	7.358226	-2.453917	-7.361756
Na	3.679108	-1.226958	-8.588715
Na	8.584588	1.226958	-6.134798
Na	6.131853	1.226958	-8.588715
Na	11.037333	-1.226958	-6.134798
O	3.812565	1.092452	-8.723220
O	8.718045	-1.092452	-6.000292
O	5.998397	-1.092452	-8.723220
O	6.265300	1.361464	-6.269304
O	10.903877	1.092452	-6.000292
O	6.265300	3.546369	-8.454209
O	8.451142	1.361464	-8.454209
O	8.451142	3.546369	-6.269304
