112

Ba	0.000000	0.000000	0.000000
Ba	2.501275	-2.502383	-2.502383
Na	-1.250638	-1.251192	-3.753575
Na	3.751913	1.251192	-1.251192
Na	6.253188	-1.251192	-1.251192
Na	1.250638	1.251192	-3.753575
O	3.886739	-1.115401	-1.115401
O	-1.115811	1.115401	-3.889365
O	1.115811	-1.115401	-3.889365
O	1.385464	1.386982	-1.386982
O	6.118362	1.115401	-1.115401
O	1.385464	3.617785	-3.617785
O	3.617087	3.617785	-1.386982
O	3.617087	1.386982	-3.617785
Ba	5.002551	5.004766	0.000000
Ba	7.503826	2.502383	-2.502383
Na	3.751913	3.753575	-3.753575
Na	8.754464	6.255958	-1.251192
Na	11.255739	3.753575	-1.251192
Na	6.253188	6.255958	-3.753575
O	8.889290	3.889365	-1.115401
O	3.886739	6.120168	-3.889365
O	6.118362	3.889365	-3.889365
O	6.388015	6.391748	-1.386982
O	11.120913	6.120168	-1.115401
O	6.388015	8.622551	-3.617785
O	8.619638	8.622551	-1.386982
O	8.619637	6.391748	-3.617785
Ba	-5.002551	0.000000	-5.004766
Ba	-2.501275	-2.502383	-7.507149
Na	-6.253188	-1.251192	-8.758341
Na	-1.250638	1.251192	-6.255958
Na	1.250638	-1.251192	-6.255958
Na	-3.751913	1.251192	-8.758341
O	-1.115811	-1.115401	-6.120168
O	-6.118362	1.115401	-8.894131
O	-3.886739	-1.115401	-8.894131
O	-3.617087	1.386982	-6.391748
O	1.115811	1.115401	-6.120168
O	-3.617087	3.617785	-8.622551
O	-1.385464	3.617785	-6.391748
O	-1.385464	1.386982	-8.622551
Ba	0.000000	5.004766	-5.004766
Ba	2.501275	2.502383	-7.507149
Na	-1.250638	3.753575	-8.758341
Na	3.751913	6.255958	-6.255958
Na	6.253188	3.753575	-6.255958
Na	1.250638	6.255958	-8.758341
O	3.886739	3.889365	-6.120168
O	-1.115811	6.120168	-8.894131
O	1.115811	3.889365	-8.894131
O	1.385464	6.391748	-6.391748
O	6.118362	6.120168	-6.120168
O	1.385464	8.622551	-8.622551
O	3.617087	8.622551	-6.391748
O	3.617087	6.391748	-8.622551
Ba	5.002551	-5.004766	0.000000
Ba	7.503826	-7.507149	-2.502383
Na	3.751913	-6.255958	-3.753575
Na	8.754464	-3.753575	-1.251192
Na	11.255739	-6.255958	-1.251192
Na	6.253188	-3.753575	-3.753575
O	8.889290	-6.120168	-1.115401
O	3.886739	-3.889365	-3.889365
O	6.118362	-6.120168	-3.889365
O	6.388015	-3.617784	-1.386982
O	11.120913	-3.889365	-1.115401
O	6.388015	-1.386982	-3.617785
O	8.619638	-1.386982	-1.386982
O	8.619637	-3.617784	-3.617785
Ba	10.005102	0.000000	0.000000
Ba	12.506377	-2.502383	-2.502383
Na	8.754464	-1.251192	-3.753575
Na	13.757015	1.251192	-1.251192
Na	16.258290	-1.251192	-1.251192
Na	11.255739	1.251192	-3.753575
O	13.891841	-1.115401	-1.115401
O	8.889290	1.115401	-3.889365
O	11.120913	-1.115401	-3.889365
O	11.390566	1.386982	-1.386982
O	16.123464	1.115401	-1.115401
O	11.390566	3.617785	-3.617785
O	13.622188	3.617785	-1.386982
O	13.622188	1.386982	-3.617785
Ba	0.000000	-5.004766	-5.004766
Ba	2.501275	-7.507149	-7.507149
Na	-1.250638	-6.255958	-8.758341
Na	3.751913	-3.753575	-6.255958
Na	6.253188	-6.255958	-6.255958
Na	1.250638	-3.753575	-8.758341
O	3.886739	-6.120168	-6.120168
O	-1.115811	-3.889365	-8.894131
O	1.115811	-6.120168	-8.894131
O	1.385464	-3.617784	-6.391748
O	6.118362	-3.889365	-6.120168
O	1.385464	-1.386982	-8.622551
O	3.617087	-1.386982	-6.391748
O	3.617087	-3.617784	-8.622551
Ba	5.002551	0.000000	-5.004766
Ba	7.503826	-2.502383	-7.507149
Na	3.751913	-1.251192	-8.758341
Na	8.754464	1.251192	-6.255958
Na	11.255739	-1.251192	-6.255958
Na	6.253188	1.251192	-8.758341
O	8.889290	-1.115401	-6.120168
O	3.886739	1.115401	-8.894131
O	6.118362	-1.115401	-8.894131
O	6.388015	1.386982	-6.391748
O	11.120913	1.115401	-6.120168
O	6.388015	3.617785	-8.622551
O	8.619638	3.617785	-6.391748
O	8.619637	1.386982	-8.622551
