112

Nb	0.000000	0.000000	0.000000
Nb	2.610086	-2.610054	-2.610054
O	1.085461	1.085638	-1.085638
O	3.695547	-1.524415	-1.524415
O	-1.524626	1.524415	-3.695702
O	1.524626	-1.524415	-3.695702
O	1.085461	4.134469	-4.134469
O	4.134712	4.134469	-1.085638
O	4.134712	1.085638	-4.134469
O	6.744799	1.524415	-1.524415
Rb	-1.305043	-1.305027	-3.915080
Rb	1.305043	1.305027	-3.915080
Rb	3.915130	1.305027	-1.305027
Rb	6.525216	-1.305027	-1.305027
Nb	5.220171	5.220113	0.000000
Nb	7.830257	2.610059	-2.610054
O	6.305631	6.305751	-1.085638
O	8.915718	3.695698	-1.524415
O	3.695545	6.744528	-3.695702
O	6.744797	3.695698	-3.695702
O	6.305631	9.354582	-4.134469
O	9.354883	9.354582	-1.085638
O	9.354883	6.305751	-4.134469
O	11.964970	6.744528	-1.524415
Rb	3.915128	3.915086	-3.915080
Rb	6.525214	6.525140	-3.915080
Rb	9.135301	6.525140	-1.305027
Rb	11.745387	3.915086	-1.305027
Nb	-5.220171	0.000000	-5.220113
Nb	-2.610084	-2.610054	-7.830167
O	-4.134710	1.085638	-6.305751
O	-1.524624	-1.524415	-6.744528
O	-6.744797	1.524415	-8.915815
O	-3.695545	-1.524415	-8.915815
O	-4.134710	4.134469	-9.354582
O	-1.085458	4.134469	-6.305751
O	-1.085458	1.085638	-9.354582
O	1.524628	1.524415	-6.744528
Rb	-6.525214	-1.305027	-9.135193
Rb	-3.915128	1.305027	-9.135193
Rb	-1.305041	1.305027	-6.525140
Rb	1.305045	-1.305027	-6.525140
Nb	0.000000	5.220113	-5.220113
Nb	2.610086	2.610059	-7.830167
O	1.085461	6.305751	-6.305751
O	3.695547	3.695698	-6.744528
O	-1.524626	6.744528	-8.915815
O	1.524626	3.695698	-8.915815
O	1.085461	9.354582	-9.354582
O	4.134712	9.354582	-6.305751
O	4.134712	6.305751	-9.354582
O	6.744799	6.744528	-6.744528
Rb	-1.305043	3.915086	-9.135193
Rb	1.305043	6.525140	-9.135193
Rb	3.915130	6.525140	-6.525140
Rb	6.525216	3.915086	-6.525140
Nb	5.220171	-5.220113	0.000000
Nb	7.830257	-7.830167	-2.610054
O	6.305631	-4.134475	-1.085638
O	8.915718	-6.744528	-1.524415
O	3.695545	-3.695698	-3.695702
O	6.744797	-6.744528	-3.695702
O	6.305631	-1.085644	-4.134469
O	9.354883	-1.085644	-1.085638
O	9.354883	-4.134475	-4.134469
O	11.964970	-3.695698	-1.524415
Rb	3.915128	-6.525140	-3.915080
Rb	6.525214	-3.915086	-3.915080
Rb	9.135301	-3.915086	-1.305027
Rb	11.745387	-6.525140	-1.305027
Nb	10.440342	0.000000	0.000000
Nb	13.050428	-2.610054	-2.610054
O	11.525802	1.085638	-1.085638
O	14.135889	-1.524415	-1.524415
O	8.915716	1.524415	-3.695702
O	11.964968	-1.524415	-3.695702
O	11.525802	4.134469	-4.134469
O	14.575054	4.134469	-1.085638
O	14.575054	1.085638	-4.134469
O	17.185141	1.524415	-1.524415
Rb	9.135298	-1.305027	-3.915080
Rb	11.745385	1.305027	-3.915080
Rb	14.355471	1.305027	-1.305027
Rb	16.965558	-1.305027	-1.305027
Nb	0.000000	-5.220113	-5.220113
Nb	2.610086	-7.830167	-7.830167
O	1.085461	-4.134475	-6.305751
O	3.695547	-6.744528	-6.744528
O	-1.524626	-3.695698	-8.915815
O	1.524626	-6.744528	-8.915815
O	1.085461	-1.085644	-9.354582
O	4.134712	-1.085644	-6.305751
O	4.134712	-4.134475	-9.354582
O	6.744799	-3.695698	-6.744528
Rb	-1.305043	-6.525140	-9.135193
Rb	1.305043	-3.915086	-9.135193
Rb	3.915130	-3.915086	-6.525140
Rb	6.525216	-6.525140	-6.525140
Nb	5.220171	0.000000	-5.220113
Nb	7.830257	-2.610054	-7.830167
O	6.305631	1.085638	-6.305751
O	8.915718	-1.524415	-6.744528
O	3.695545	1.524415	-8.915815
O	6.744797	-1.524415	-8.915815
O	6.305631	4.134469	-9.354582
O	9.354883	4.134469	-6.305751
O	9.354883	1.085638	-9.354582
O	11.964970	1.524415	-6.744528
Rb	3.915128	-1.305027	-9.135193
Rb	6.525214	1.305027	-9.135193
Rb	9.135301	1.305027	-6.525140
Rb	11.745387	-1.305027	-6.525140
