40

Au	2.000951	2.000951	2.000951
B	0.000000	0.000000	0.000000
O	0.000000	2.000951	2.000951
O	2.000951	0.000000	2.000951
O	2.000951	2.000951	0.000000
Au	2.000951	2.000951	6.002854
B	0.000000	0.000000	4.001903
O	0.000000	2.000951	6.002854
O	2.000951	0.000000	6.002854
O	2.000951	2.000951	4.001903
Au	2.000951	6.002854	2.000951
B	0.000000	4.001903	0.000000
O	0.000000	6.002854	2.000951
O	2.000951	4.001903	2.000951
O	2.000951	6.002854	0.000000
Au	2.000951	6.002854	6.002854
B	0.000000	4.001903	4.001903
O	0.000000	6.002854	6.002854
O	2.000951	4.001903	6.002854
O	2.000951	6.002854	4.001903
Au	6.002854	2.000951	2.000951
B	4.001903	0.000000	0.000000
O	4.001903	2.000951	2.000951
O	6.002854	0.000000	2.000951
O	6.002854	2.000951	0.000000
Au	6.002854	2.000951	6.002854
B	4.001903	0.000000	4.001903
O	4.001903	2.000951	6.002854
O	6.002854	0.000000	6.002854
O	6.002854	2.000951	4.001903
Au	6.002854	6.002854	2.000951
B	4.001903	4.001903	0.000000
O	4.001903	6.002854	2.000951
O	6.002854	4.001903	2.000951
O	6.002854	6.002854	0.000000
Au	6.002854	6.002854	6.002854
B	4.001903	4.001903	4.001903
O	4.001903	6.002854	6.002854
O	6.002854	4.001903	6.002854
O	6.002854	6.002854	4.001903
