112

O	1.126844	1.127916	-1.127916
O	-1.156751	1.156413	-3.412236
O	3.410449	-1.156413	-1.156413
O	1.156751	-1.156413	-3.412236
O	1.126844	3.440743	-3.440743
O	3.440356	1.127916	-3.440743
O	3.440356	3.440743	-1.127916
O	5.723961	1.156413	-1.156413
W	0.000000	0.000000	0.000000
W	2.283605	-2.284330	-2.284330
Yb	-1.141802	-1.142165	-3.426495
Yb	5.709003	-1.142165	-1.142165
Yb	1.141802	1.142165	-3.426495
Yb	3.425407	1.142165	-1.142165
O	5.694048	5.696573	-1.127916
O	3.410453	5.725069	-3.412236
O	7.977653	3.412243	-1.156413
O	5.723954	3.412243	-3.412236
O	5.694048	8.009399	-3.440743
O	8.007559	5.696573	-3.440743
O	8.007559	8.009399	-1.127916
O	10.291164	5.725069	-1.156413
W	4.567203	4.568656	0.000000
W	6.850808	2.284327	-2.284330
Yb	3.425401	3.426491	-3.426495
Yb	10.276206	3.426491	-1.142165
Yb	5.709006	5.710821	-3.426495
Yb	7.992611	5.710821	-1.142165
O	-3.440359	1.127916	-5.696573
O	-5.723954	1.156413	-7.980893
O	-1.156754	-1.156413	-5.725069
O	-3.410453	-1.156413	-7.980893
O	-3.440359	3.440743	-8.009399
O	-1.126848	1.127916	-8.009399
O	-1.126848	3.440743	-5.696573
O	1.156757	1.156413	-5.725069
W	-4.567203	0.000000	-4.568656
W	-2.283598	-2.284330	-6.852986
Yb	-5.709006	-1.142165	-7.995151
Yb	1.141799	-1.142165	-5.710821
Yb	-3.425401	1.142165	-7.995151
Yb	-1.141796	1.142165	-5.710821
O	1.126844	5.696573	-5.696573
O	-1.156751	5.725069	-7.980893
O	3.410449	3.412243	-5.725069
O	1.156751	3.412243	-7.980893
O	1.126844	8.009399	-8.009399
O	3.440356	5.696573	-8.009399
O	3.440356	8.009399	-5.696573
O	5.723961	5.725069	-5.725069
W	0.000000	4.568656	-4.568656
W	2.283605	2.284327	-6.852986
Yb	-1.141802	3.426491	-7.995151
Yb	5.709003	3.426491	-5.710821
Yb	1.141802	5.710821	-7.995151
Yb	3.425407	5.710821	-5.710821
O	5.694048	-3.440740	-1.127916
O	3.410453	-3.412243	-3.412236
O	7.977653	-5.725069	-1.156413
O	5.723954	-5.725069	-3.412236
O	5.694048	-1.127913	-3.440743
O	8.007559	-3.440740	-3.440743
O	8.007559	-1.127913	-1.127916
O	10.291164	-3.412243	-1.156413
W	4.567203	-4.568656	0.000000
W	6.850808	-6.852986	-2.284330
Yb	3.425401	-5.710821	-3.426495
Yb	10.276206	-5.710821	-1.142165
Yb	5.709006	-3.426491	-3.426495
Yb	7.992611	-3.426491	-1.142165
O	10.261251	1.127916	-1.127916
O	7.977656	1.156413	-3.412236
O	12.544856	-1.156413	-1.156413
O	10.291157	-1.156413	-3.412236
O	10.261251	3.440743	-3.440743
O	12.574762	1.127916	-3.440743
O	12.574762	3.440743	-1.127916
O	14.858367	1.156413	-1.156413
W	9.134407	0.000000	0.000000
W	11.418012	-2.284330	-2.284330
Yb	7.992604	-1.142165	-3.426495
Yb	14.843409	-1.142165	-1.142165
Yb	10.276209	1.142165	-3.426495
Yb	12.559814	1.142165	-1.142165
O	1.126844	-3.440740	-5.696573
O	-1.156751	-3.412243	-7.980893
O	3.410449	-5.725069	-5.725069
O	1.156751	-5.725069	-7.980893
O	1.126844	-1.127913	-8.009399
O	3.440356	-3.440740	-8.009399
O	3.440356	-1.127913	-5.696573
O	5.723961	-3.412243	-5.725069
W	0.000000	-4.568656	-4.568656
W	2.283605	-6.852986	-6.852986
Yb	-1.141802	-5.710821	-7.995151
Yb	5.709003	-5.710821	-5.710821
Yb	1.141802	-3.426491	-7.995151
Yb	3.425407	-3.426491	-5.710821
O	5.694048	1.127916	-5.696573
O	3.410453	1.156413	-7.980893
O	7.977653	-1.156413	-5.725069
O	5.723954	-1.156413	-7.980893
O	5.694048	3.440743	-8.009399
O	8.007559	1.127916	-8.009399
O	8.007559	3.440743	-5.696573
O	10.291164	1.156413	-5.725069
W	4.567203	0.000000	-4.568656
W	6.850808	-2.284330	-6.852986
Yb	3.425401	-1.142165	-7.995151
Yb	10.276206	-1.142165	-5.710821
Yb	5.709006	1.142165	-7.995151
Yb	7.992611	1.142165	-5.710821
