40

Mg	1.873543	1.873543	1.873543
O	0.000000	1.873543	1.873543
O	1.873543	0.000000	1.873543
O	1.873543	1.873543	0.000000
W	0.000000	0.000000	0.000000
Mg	1.873543	1.873543	5.620629
O	0.000000	1.873543	5.620629
O	1.873543	0.000000	5.620629
O	1.873543	1.873543	3.747086
W	0.000000	0.000000	3.747086
Mg	1.873543	5.620629	1.873543
O	0.000000	5.620629	1.873543
O	1.873543	3.747086	1.873543
O	1.873543	5.620629	0.000000
W	0.000000	3.747086	0.000000
Mg	1.873543	5.620629	5.620629
O	0.000000	5.620629	5.620629
O	1.873543	3.747086	5.620629
O	1.873543	5.620629	3.747086
W	0.000000	3.747086	3.747086
Mg	5.620629	1.873543	1.873543
O	3.747086	1.873543	1.873543
O	5.620629	0.000000	1.873543
O	5.620629	1.873543	0.000000
W	3.747086	0.000000	0.000000
Mg	5.620629	1.873543	5.620629
O	3.747086	1.873543	5.620629
O	5.620629	0.000000	5.620629
O	5.620629	1.873543	3.747086
W	3.747086	0.000000	3.747086
Mg	5.620629	5.620629	1.873543
O	3.747086	5.620629	1.873543
O	5.620629	3.747086	1.873543
O	5.620629	5.620629	0.000000
W	3.747086	3.747086	0.000000
Mg	5.620629	5.620629	5.620629
O	3.747086	5.620629	5.620629
O	5.620629	3.747086	5.620629
O	5.620629	5.620629	3.747086
W	3.747086	3.747086	3.747086
