40

In	2.057622	2.057622	2.057622
Mn	0.000000	0.000000	0.000000
O	0.000000	2.057622	2.057622
O	2.057622	0.000000	2.057622
O	2.057622	2.057622	0.000000
In	2.057622	2.057622	6.172865
Mn	0.000000	0.000000	4.115244
O	0.000000	2.057622	6.172865
O	2.057622	0.000000	6.172865
O	2.057622	2.057622	4.115244
In	2.057622	6.172865	2.057622
Mn	0.000000	4.115244	0.000000
O	0.000000	6.172865	2.057622
O	2.057622	4.115244	2.057622
O	2.057622	6.172865	0.000000
In	2.057622	6.172865	6.172865
Mn	0.000000	4.115244	4.115244
O	0.000000	6.172865	6.172865
O	2.057622	4.115244	6.172865
O	2.057622	6.172865	4.115244
In	6.172865	2.057622	2.057622
Mn	4.115244	0.000000	0.000000
O	4.115244	2.057622	2.057622
O	6.172865	0.000000	2.057622
O	6.172865	2.057622	0.000000
In	6.172865	2.057622	6.172865
Mn	4.115244	0.000000	4.115244
O	4.115244	2.057622	6.172865
O	6.172865	0.000000	6.172865
O	6.172865	2.057622	4.115244
In	6.172865	6.172865	2.057622
Mn	4.115244	4.115244	0.000000
O	4.115244	6.172865	2.057622
O	6.172865	4.115244	2.057622
O	6.172865	6.172865	0.000000
In	6.172865	6.172865	6.172865
Mn	4.115244	4.115244	4.115244
O	4.115244	6.172865	6.172865
O	6.172865	4.115244	6.172865
O	6.172865	6.172865	4.115244
