40

Co	1.816900	1.818150	1.816890
O	1.816900	1.818150	0.000000
O	0.000000	1.818150	1.816890
O	1.816900	0.000000	1.816890
Ta	0.000000	0.000000	0.000000
Co	1.816900	1.818150	5.450678
O	1.816900	1.818150	3.633788
O	0.000000	1.818150	5.450678
O	1.816900	0.000000	5.450678
Ta	0.000000	0.000000	3.633788
Co	1.816900	5.454457	1.816890
O	1.816900	5.454457	0.000000
O	0.000000	5.454457	1.816890
O	1.816900	3.636307	1.816890
Ta	0.000000	3.636307	0.000000
Co	1.816900	5.454457	5.450678
O	1.816900	5.454457	3.633788
O	0.000000	5.454457	5.450678
O	1.816900	3.636307	5.450678
Ta	0.000000	3.636307	3.633788
Co	5.450713	1.818150	1.816890
O	5.450713	1.818150	0.000000
O	3.633813	1.818150	1.816890
O	5.450713	0.000000	1.816890
Ta	3.633813	0.000000	0.000000
Co	5.450713	1.818150	5.450678
O	5.450713	1.818150	3.633788
O	3.633813	1.818150	5.450678
O	5.450713	0.000000	5.450678
Ta	3.633813	0.000000	3.633788
Co	5.450713	5.454457	1.816890
O	5.450713	5.454457	0.000000
O	3.633813	5.454457	1.816890
O	5.450713	3.636307	1.816890
Ta	3.633813	3.636307	0.000000
Co	5.450713	5.454457	5.450678
O	5.450713	5.454457	3.633788
O	3.633813	5.454457	5.450678
O	5.450713	3.636307	5.450678
Ta	3.633813	3.636307	3.633788
