112

B	0.000000	0.000000	0.000000
B	2.146607	-2.146909	-2.146909
Ca	-1.073304	-1.073455	-3.220364
Ca	3.219911	1.073455	-1.073455
Ca	5.366518	-1.073455	-1.073455
Ca	1.073304	1.073455	-3.220364
O	3.030408	-1.262376	-1.262377
O	-1.262806	1.262377	-3.031442
O	1.262806	-1.262376	-3.031442
O	0.883801	0.884533	-0.884533
O	5.556021	1.262377	-1.262377
O	0.883801	3.409286	-3.409286
O	3.409414	3.409286	-0.884533
O	3.409414	0.884533	-3.409286
B	4.293215	4.293818	0.000000
B	6.439822	2.146909	-2.146909
Ca	3.219911	3.220364	-3.220364
Ca	7.513126	5.367273	-1.073455
Ca	9.659733	3.220364	-1.073455
Ca	5.366518	5.367273	-3.220364
O	7.323623	3.031442	-1.262377
O	3.030408	5.556195	-3.031442
O	5.556021	3.031442	-3.031442
O	5.177016	5.178351	-0.884533
O	9.849235	5.556195	-1.262377
O	5.177016	7.703104	-3.409286
O	7.702628	7.703104	-0.884533
O	7.702628	5.178351	-3.409286
B	-4.293215	0.000000	-4.293818
B	-2.146607	-2.146909	-6.440727
Ca	-5.366518	-1.073455	-7.514182
Ca	-1.073304	1.073455	-5.367273
Ca	1.073304	-1.073455	-5.367273
Ca	-3.219911	1.073455	-7.514182
O	-1.262806	-1.262376	-5.556195
O	-5.556021	1.262377	-7.325260
O	-3.030408	-1.262376	-7.325260
O	-3.409414	0.884533	-5.178351
O	1.262806	1.262377	-5.556195
O	-3.409414	3.409286	-7.703104
O	-0.883801	3.409286	-5.178351
O	-0.883801	0.884533	-7.703104
B	0.000000	4.293818	-4.293818
B	2.146607	2.146909	-6.440727
Ca	-1.073304	3.220364	-7.514182
Ca	3.219911	5.367273	-5.367273
Ca	5.366518	3.220364	-5.367273
Ca	1.073304	5.367273	-7.514182
O	3.030408	3.031442	-5.556195
O	-1.262806	5.556195	-7.325260
O	1.262806	3.031442	-7.325260
O	0.883801	5.178351	-5.178351
O	5.556021	5.556195	-5.556195
O	0.883801	7.703104	-7.703104
O	3.409414	7.703104	-5.178351
O	3.409414	5.178351	-7.703104
B	4.293215	-4.293818	0.000000
B	6.439822	-6.440727	-2.146909
Ca	3.219911	-5.367273	-3.220364
Ca	7.513126	-3.220364	-1.073455
Ca	9.659733	-5.367273	-1.073455
Ca	5.366518	-3.220364	-3.220364
O	7.323623	-5.556195	-1.262377
O	3.030408	-3.031442	-3.031442
O	5.556021	-5.556195	-3.031442
O	5.177016	-3.409286	-0.884533
O	9.849235	-3.031442	-1.262377
O	5.177016	-0.884533	-3.409286
O	7.702628	-0.884533	-0.884533
O	7.702628	-3.409286	-3.409286
B	8.586429	0.000000	0.000000
B	10.733036	-2.146909	-2.146909
Ca	7.513126	-1.073455	-3.220364
Ca	11.806340	1.073455	-1.073455
Ca	13.952947	-1.073455	-1.073455
Ca	9.659733	1.073455	-3.220364
O	11.616837	-1.262376	-1.262377
O	7.323623	1.262377	-3.031442
O	9.849235	-1.262376	-3.031442
O	9.470230	0.884533	-0.884533
O	14.142450	1.262377	-1.262377
O	9.470230	3.409286	-3.409286
O	11.995843	3.409286	-0.884533
O	11.995843	0.884533	-3.409286
B	0.000000	-4.293818	-4.293818
B	2.146607	-6.440727	-6.440727
Ca	-1.073304	-5.367273	-7.514182
Ca	3.219911	-3.220364	-5.367273
Ca	5.366518	-5.367273	-5.367273
Ca	1.073304	-3.220364	-7.514182
O	3.030408	-5.556195	-5.556195
O	-1.262806	-3.031442	-7.325260
O	1.262806	-5.556195	-7.325260
O	0.883801	-3.409286	-5.178351
O	5.556021	-3.031442	-5.556195
O	0.883801	-0.884533	-7.703104
O	3.409414	-0.884533	-5.178351
O	3.409414	-3.409286	-7.703104
B	4.293215	0.000000	-4.293818
B	6.439822	-2.146909	-6.440727
Ca	3.219911	-1.073455	-7.514182
Ca	7.513126	1.073455	-5.367273
Ca	9.659733	-1.073455	-5.367273
Ca	5.366518	1.073455	-7.514182
O	7.323623	-1.262376	-5.556195
O	3.030408	1.262377	-7.325260
O	5.556021	-1.262376	-7.325260
O	5.177016	0.884533	-5.178351
O	9.849235	1.262377	-5.556195
O	5.177016	3.409286	-7.703104
O	7.702628	3.409286	-5.178351
O	7.702628	0.884533	-7.703104
