40

O	2.013790	2.013790	0.000000
O	0.000000	2.013790	2.013790
O	2.013790	0.000000	2.013790
Sc	0.000000	0.000000	0.000000
Sn	2.013790	2.013790	2.013790
O	2.013790	2.013790	4.027576
O	0.000000	2.013790	6.041366
O	2.013790	0.000000	6.041366
Sc	0.000000	0.000000	4.027576
Sn	2.013790	2.013790	6.041366
O	2.013790	6.041366	0.000000
O	0.000000	6.041366	2.013790
O	2.013790	4.027576	2.013790
Sc	0.000000	4.027576	0.000000
Sn	2.013790	6.041366	2.013790
O	2.013790	6.041366	4.027576
O	0.000000	6.041366	6.041366
O	2.013790	4.027576	6.041366
Sc	0.000000	4.027576	4.027576
Sn	2.013790	6.041366	6.041366
O	6.041366	2.013790	0.000000
O	4.027576	2.013790	2.013790
O	6.041366	0.000000	2.013790
Sc	4.027576	0.000000	0.000000
Sn	6.041366	2.013790	2.013790
O	6.041366	2.013790	4.027576
O	4.027576	2.013790	6.041366
O	6.041366	0.000000	6.041366
Sc	4.027576	0.000000	4.027576
Sn	6.041366	2.013790	6.041366
O	6.041366	6.041366	0.000000
O	4.027576	6.041366	2.013790
O	6.041366	4.027576	2.013790
Sc	4.027576	4.027576	0.000000
Sn	6.041366	6.041366	2.013790
O	6.041366	6.041366	4.027576
O	4.027576	6.041366	6.041366
O	6.041366	4.027576	6.041366
Sc	4.027576	4.027576	4.027576
Sn	6.041366	6.041366	6.041366
