40

C	0.000000	0.000000	0.000000
Fe	1.811753	1.811753	1.811753
O	0.000000	1.811753	1.811753
O	1.811753	0.000000	1.811753
O	1.811753	1.811753	0.000000
C	0.000000	0.000000	3.623506
Fe	1.811753	1.811753	5.435259
O	0.000000	1.811753	5.435259
O	1.811753	0.000000	5.435259
O	1.811753	1.811753	3.623506
C	0.000000	3.623506	0.000000
Fe	1.811753	5.435259	1.811753
O	0.000000	5.435259	1.811753
O	1.811753	3.623506	1.811753
O	1.811753	5.435259	0.000000
C	0.000000	3.623506	3.623506
Fe	1.811753	5.435259	5.435259
O	0.000000	5.435259	5.435259
O	1.811753	3.623506	5.435259
O	1.811753	5.435259	3.623506
C	3.623506	0.000000	0.000000
Fe	5.435259	1.811753	1.811753
O	3.623506	1.811753	1.811753
O	5.435259	0.000000	1.811753
O	5.435259	1.811753	0.000000
C	3.623506	0.000000	3.623506
Fe	5.435259	1.811753	5.435259
O	3.623506	1.811753	5.435259
O	5.435259	0.000000	5.435259
O	5.435259	1.811753	3.623506
C	3.623506	3.623506	0.000000
Fe	5.435259	5.435259	1.811753
O	3.623506	5.435259	1.811753
O	5.435259	3.623506	1.811753
O	5.435259	5.435259	0.000000
C	3.623506	3.623506	3.623506
Fe	5.435259	5.435259	5.435259
O	3.623506	5.435259	5.435259
O	5.435259	3.623506	5.435259
O	5.435259	5.435259	3.623506
