40

O	0.000000	1.943394	1.943394
O	1.943394	0.000000	1.943394
O	1.943394	1.943394	0.000000
Ru	1.943394	1.943394	1.943394
Ti	0.000000	0.000000	0.000000
O	0.000000	1.943394	5.830181
O	1.943394	0.000000	5.830181
O	1.943394	1.943394	3.886787
Ru	1.943394	1.943394	5.830181
Ti	0.000000	0.000000	3.886787
O	0.000000	5.830181	1.943394
O	1.943394	3.886787	1.943394
O	1.943394	5.830181	0.000000
Ru	1.943394	5.830181	1.943394
Ti	0.000000	3.886787	0.000000
O	0.000000	5.830181	5.830181
O	1.943394	3.886787	5.830181
O	1.943394	5.830181	3.886787
Ru	1.943394	5.830181	5.830181
Ti	0.000000	3.886787	3.886787
O	3.886787	1.943394	1.943394
O	5.830181	0.000000	1.943394
O	5.830181	1.943394	0.000000
Ru	5.830181	1.943394	1.943394
Ti	3.886787	0.000000	0.000000
O	3.886787	1.943394	5.830181
O	5.830181	0.000000	5.830181
O	5.830181	1.943394	3.886787
Ru	5.830181	1.943394	5.830181
Ti	3.886787	0.000000	3.886787
O	3.886787	5.830181	1.943394
O	5.830181	3.886787	1.943394
O	5.830181	5.830181	0.000000
Ru	5.830181	5.830181	1.943394
Ti	3.886787	3.886787	0.000000
O	3.886787	5.830181	5.830181
O	5.830181	3.886787	5.830181
O	5.830181	5.830181	3.886787
Ru	5.830181	5.830181	5.830181
Ti	3.886787	3.886787	3.886787
