40

Cd	2.039630	2.039630	2.039630
Ho	0.000000	0.000000	0.000000
O	2.039630	0.000000	2.039630
O	0.000000	2.039630	2.039630
O	2.039630	2.039630	0.000000
Cd	2.039630	2.039630	6.118904
Ho	0.000000	0.000000	4.079274
O	2.039630	0.000000	6.118904
O	0.000000	2.039630	6.118904
O	2.039630	2.039630	4.079274
Cd	2.039630	6.118904	2.039630
Ho	0.000000	4.079274	0.000000
O	2.039630	4.079274	2.039630
O	0.000000	6.118904	2.039630
O	2.039630	6.118904	0.000000
Cd	2.039630	6.118904	6.118904
Ho	0.000000	4.079274	4.079274
O	2.039630	4.079274	6.118904
O	0.000000	6.118904	6.118904
O	2.039630	6.118904	4.079274
Cd	6.118904	2.039630	2.039630
Ho	4.079274	0.000000	0.000000
O	6.118904	0.000000	2.039630
O	4.079274	2.039630	2.039630
O	6.118904	2.039630	0.000000
Cd	6.118904	2.039630	6.118904
Ho	4.079274	0.000000	4.079274
O	6.118904	0.000000	6.118904
O	4.079274	2.039630	6.118904
O	6.118904	2.039630	4.079274
Cd	6.118904	6.118904	2.039630
Ho	4.079274	4.079274	0.000000
O	6.118904	4.079274	2.039630
O	4.079274	6.118904	2.039630
O	6.118904	6.118904	0.000000
Cd	6.118904	6.118904	6.118904
Ho	4.079274	4.079274	4.079274
O	6.118904	4.079274	6.118904
O	4.079274	6.118904	6.118904
O	6.118904	6.118904	4.079274
