40

Ce	2.265730	2.265730	2.265730
O	2.265730	2.265730	0.000000
O	0.000000	2.265730	2.265730
O	2.265730	0.000000	2.265730
Sm	0.000000	0.000000	0.000000
Ce	2.265730	2.265730	6.797204
O	2.265730	2.265730	4.531474
O	0.000000	2.265730	6.797204
O	2.265730	0.000000	6.797204
Sm	0.000000	0.000000	4.531474
Ce	2.265730	6.797204	2.265730
O	2.265730	6.797204	0.000000
O	0.000000	6.797204	2.265730
O	2.265730	4.531474	2.265730
Sm	0.000000	4.531474	0.000000
Ce	2.265730	6.797204	6.797204
O	2.265730	6.797204	4.531474
O	0.000000	6.797204	6.797204
O	2.265730	4.531474	6.797204
Sm	0.000000	4.531474	4.531474
Ce	6.797204	2.265730	2.265730
O	6.797204	2.265730	0.000000
O	4.531474	2.265730	2.265730
O	6.797204	0.000000	2.265730
Sm	4.531474	0.000000	0.000000
Ce	6.797204	2.265730	6.797204
O	6.797204	2.265730	4.531474
O	4.531474	2.265730	6.797204
O	6.797204	0.000000	6.797204
Sm	4.531474	0.000000	4.531474
Ce	6.797204	6.797204	2.265730
O	6.797204	6.797204	0.000000
O	4.531474	6.797204	2.265730
O	6.797204	4.531474	2.265730
Sm	4.531474	4.531474	0.000000
Ce	6.797204	6.797204	6.797204
O	6.797204	6.797204	4.531474
O	4.531474	6.797204	6.797204
O	6.797204	4.531474	6.797204
Sm	4.531474	4.531474	4.531474
