40

O	2.052589	2.052589	0.000000
O	2.052589	0.000000	2.052589
O	0.000000	2.052589	2.052589
Pd	0.000000	0.000000	0.000000
Yb	2.052589	2.052589	2.052589
O	2.052589	2.052589	4.105189
O	2.052589	0.000000	6.157778
O	0.000000	2.052589	6.157778
Pd	0.000000	0.000000	4.105189
Yb	2.052589	2.052589	6.157778
O	2.052589	6.157778	0.000000
O	2.052589	4.105189	2.052589
O	0.000000	6.157778	2.052589
Pd	0.000000	4.105189	0.000000
Yb	2.052589	6.157778	2.052589
O	2.052589	6.157778	4.105189
O	2.052589	4.105189	6.157778
O	0.000000	6.157778	6.157778
Pd	0.000000	4.105189	4.105189
Yb	2.052589	6.157778	6.157778
O	6.157778	2.052589	0.000000
O	6.157778	0.000000	2.052589
O	4.105189	2.052589	2.052589
Pd	4.105189	0.000000	0.000000
Yb	6.157778	2.052589	2.052589
O	6.157778	2.052589	4.105189
O	6.157778	0.000000	6.157778
O	4.105189	2.052589	6.157778
Pd	4.105189	0.000000	4.105189
Yb	6.157778	2.052589	6.157778
O	6.157778	6.157778	0.000000
O	6.157778	4.105189	2.052589
O	4.105189	6.157778	2.052589
Pd	4.105189	4.105189	0.000000
Yb	6.157778	6.157778	2.052589
O	6.157778	6.157778	4.105189
O	6.157778	4.105189	6.157778
O	4.105189	6.157778	6.157778
Pd	4.105189	4.105189	4.105189
Yb	6.157778	6.157778	6.157778
