40

La	2.249609	2.249609	2.249609
O	2.249609	2.249609	0.000000
O	2.249609	0.000000	2.249609
O	0.000000	2.249609	2.249609
W	0.000000	0.000000	0.000000
La	2.249609	2.249609	6.748827
O	2.249609	2.249609	4.499218
O	2.249609	0.000000	6.748827
O	0.000000	2.249609	6.748827
W	0.000000	0.000000	4.499218
La	2.249609	6.748827	2.249609
O	2.249609	6.748827	0.000000
O	2.249609	4.499218	2.249609
O	0.000000	6.748827	2.249609
W	0.000000	4.499218	0.000000
La	2.249609	6.748827	6.748827
O	2.249609	6.748827	4.499218
O	2.249609	4.499218	6.748827
O	0.000000	6.748827	6.748827
W	0.000000	4.499218	4.499218
La	6.748827	2.249609	2.249609
O	6.748827	2.249609	0.000000
O	6.748827	0.000000	2.249609
O	4.499218	2.249609	2.249609
W	4.499218	0.000000	0.000000
La	6.748827	2.249609	6.748827
O	6.748827	2.249609	4.499218
O	6.748827	0.000000	6.748827
O	4.499218	2.249609	6.748827
W	4.499218	0.000000	4.499218
La	6.748827	6.748827	2.249609
O	6.748827	6.748827	0.000000
O	6.748827	4.499218	2.249609
O	4.499218	6.748827	2.249609
W	4.499218	4.499218	0.000000
La	6.748827	6.748827	6.748827
O	6.748827	6.748827	4.499218
O	6.748827	4.499218	6.748827
O	4.499218	6.748827	6.748827
W	4.499218	4.499218	4.499218
