40

La	2.234428	2.234428	2.234428
O	2.234428	2.234428	0.000000
O	2.234428	0.000000	2.234428
O	0.000000	2.234428	2.234428
W	0.000000	0.000000	0.000000
La	2.234428	2.234428	6.703282
O	2.234428	2.234428	4.468854
O	2.234428	0.000000	6.703282
O	0.000000	2.234428	6.703282
W	0.000000	0.000000	4.468854
La	2.234428	6.703282	2.234428
O	2.234428	6.703282	0.000000
O	2.234428	4.468854	2.234428
O	0.000000	6.703282	2.234428
W	0.000000	4.468854	0.000000
La	2.234428	6.703282	6.703282
O	2.234428	6.703282	4.468854
O	2.234428	4.468854	6.703282
O	0.000000	6.703282	6.703282
W	0.000000	4.468854	4.468854
La	6.703282	2.234428	2.234428
O	6.703282	2.234428	0.000000
O	6.703282	0.000000	2.234428
O	4.468854	2.234428	2.234428
W	4.468854	0.000000	0.000000
La	6.703282	2.234428	6.703282
O	6.703282	2.234428	4.468854
O	6.703282	0.000000	6.703282
O	4.468854	2.234428	6.703282
W	4.468854	0.000000	4.468854
La	6.703282	6.703282	2.234428
O	6.703282	6.703282	0.000000
O	6.703282	4.468854	2.234428
O	4.468854	6.703282	2.234428
W	4.468854	4.468854	0.000000
La	6.703282	6.703282	6.703282
O	6.703282	6.703282	4.468854
O	6.703282	4.468854	6.703282
O	4.468854	6.703282	6.703282
W	4.468854	4.468854	4.468854
