112

Er	0.000000	0.000000	0.000000
Er	2.216954	-2.217035	-2.217035
O	3.438929	-0.994316	-0.994316
O	-0.994979	0.994316	-3.439754
O	0.994979	-0.994316	-3.439754
O	1.221975	1.222719	-1.222719
O	5.428886	0.994316	-0.994316
O	1.221975	3.211351	-3.211351
O	3.211932	3.211351	-1.222719
O	3.211932	1.222719	-3.211351
Zn	-1.108477	-1.108517	-3.325552
Zn	3.325431	1.108517	-1.108517
Zn	5.542385	-1.108517	-1.108517
Zn	1.108477	1.108517	-3.325552
Er	4.433908	4.434070	0.000000
Er	6.650862	2.217035	-2.217035
O	7.872837	3.439754	-0.994316
O	3.438929	5.428386	-3.439754
O	5.428886	3.439754	-3.439754
O	5.655883	5.656788	-1.222719
O	9.862794	5.428386	-0.994316
O	5.655883	7.645421	-3.211351
O	7.645840	7.645421	-1.222719
O	7.645840	5.656788	-3.211351
Zn	3.325431	3.325552	-3.325552
Zn	7.759339	5.542587	-1.108517
Zn	9.976293	3.325552	-1.108517
Zn	5.542385	5.542587	-3.325552
Er	-4.433908	0.000000	-4.434070
Er	-2.216954	-2.217035	-6.651104
O	-0.994979	-0.994316	-5.428386
O	-5.428886	0.994316	-7.873823
O	-3.438929	-0.994316	-7.873823
O	-3.211932	1.222719	-5.656788
O	0.994979	0.994316	-5.428386
O	-3.211932	3.211351	-7.645421
O	-1.221975	3.211351	-5.656788
O	-1.221975	1.222719	-7.645421
Zn	-5.542385	-1.108517	-7.759622
Zn	-1.108477	1.108517	-5.542587
Zn	1.108477	-1.108517	-5.542587
Zn	-3.325431	1.108517	-7.759622
Er	0.000000	4.434070	-4.434070
Er	2.216954	2.217035	-6.651104
O	3.438929	3.439754	-5.428386
O	-0.994979	5.428386	-7.873823
O	0.994979	3.439754	-7.873823
O	1.221975	5.656788	-5.656788
O	5.428886	5.428386	-5.428386
O	1.221975	7.645421	-7.645421
O	3.211932	7.645421	-5.656788
O	3.211932	5.656788	-7.645421
Zn	-1.108477	3.325552	-7.759622
Zn	3.325431	5.542587	-5.542587
Zn	5.542385	3.325552	-5.542587
Zn	1.108477	5.542587	-7.759622
Er	4.433908	-4.434070	0.000000
Er	6.650862	-6.651104	-2.217035
O	7.872837	-5.428386	-0.994316
O	3.438929	-3.439754	-3.439754
O	5.428886	-5.428386	-3.439754
O	5.655883	-3.211351	-1.222719
O	9.862794	-3.439754	-0.994316
O	5.655883	-1.222719	-3.211351
O	7.645840	-1.222719	-1.222719
O	7.645840	-3.211351	-3.211351
Zn	3.325431	-5.542587	-3.325552
Zn	7.759339	-3.325552	-1.108517
Zn	9.976293	-5.542587	-1.108517
Zn	5.542385	-3.325552	-3.325552
Er	8.867816	0.000000	0.000000
Er	11.084770	-2.217035	-2.217035
O	12.306745	-0.994316	-0.994316
O	7.872837	0.994316	-3.439754
O	9.862794	-0.994316	-3.439754
O	10.089791	1.222719	-1.222719
O	14.296702	0.994316	-0.994316
O	10.089791	3.211351	-3.211351
O	12.079748	3.211351	-1.222719
O	12.079748	1.222719	-3.211351
Zn	7.759339	-1.108517	-3.325552
Zn	12.193247	1.108517	-1.108517
Zn	14.410201	-1.108517	-1.108517
Zn	9.976293	1.108517	-3.325552
Er	0.000000	-4.434070	-4.434070
Er	2.216954	-6.651104	-6.651104
O	3.438929	-5.428386	-5.428386
O	-0.994979	-3.439754	-7.873823
O	0.994979	-5.428386	-7.873823
O	1.221975	-3.211351	-5.656788
O	5.428886	-3.439754	-5.428386
O	1.221975	-1.222719	-7.645421
O	3.211932	-1.222719	-5.656788
O	3.211932	-3.211351	-7.645421
Zn	-1.108477	-5.542587	-7.759622
Zn	3.325431	-3.325552	-5.542587
Zn	5.542385	-5.542587	-5.542587
Zn	1.108477	-3.325552	-7.759622
Er	4.433908	0.000000	-4.434070
Er	6.650862	-2.217035	-6.651104
O	7.872837	-0.994316	-5.428386
O	3.438929	0.994316	-7.873823
O	5.428886	-0.994316	-7.873823
O	5.655883	1.222719	-5.656788
O	9.862794	0.994316	-5.428386
O	5.655883	3.211351	-7.645421
O	7.645840	3.211351	-5.656788
O	7.645840	1.222719	-7.645421
Zn	3.325431	-1.108517	-7.759622
Zn	7.759339	1.108517	-5.542587
Zn	9.976293	-1.108517	-5.542587
Zn	5.542385	1.108517	-7.759622
