40

Au	0.000000	0.000000	0.000000
O	2.765911	2.765911	2.765911
Rb	2.765911	2.765911	0.000000
Rb	2.765911	0.000000	2.765911
Rb	0.000000	2.765911	2.765911
Au	0.000000	0.000000	5.531823
O	2.765911	2.765911	8.297734
Rb	2.765911	2.765911	5.531823
Rb	2.765911	0.000000	8.297734
Rb	0.000000	2.765911	8.297734
Au	0.000000	5.531823	0.000000
O	2.765911	8.297734	2.765911
Rb	2.765911	8.297734	0.000000
Rb	2.765911	5.531823	2.765911
Rb	0.000000	8.297734	2.765911
Au	0.000000	5.531823	5.531823
O	2.765911	8.297734	8.297734
Rb	2.765911	8.297734	5.531823
Rb	2.765911	5.531823	8.297734
Rb	0.000000	8.297734	8.297734
Au	5.531823	0.000000	0.000000
O	8.297734	2.765911	2.765911
Rb	8.297734	2.765911	0.000000
Rb	8.297734	0.000000	2.765911
Rb	5.531823	2.765911	2.765911
Au	5.531823	0.000000	5.531823
O	8.297734	2.765911	8.297734
Rb	8.297734	2.765911	5.531823
Rb	8.297734	0.000000	8.297734
Rb	5.531823	2.765911	8.297734
Au	5.531823	5.531823	0.000000
O	8.297734	8.297734	2.765911
Rb	8.297734	8.297734	0.000000
Rb	8.297734	5.531823	2.765911
Rb	5.531823	8.297734	2.765911
Au	5.531823	5.531823	5.531823
O	8.297734	8.297734	8.297734
Rb	8.297734	8.297734	5.531823
Rb	8.297734	5.531823	8.297734
Rb	5.531823	8.297734	8.297734
