40

Ga	1.922710	1.922710	1.922710
Na	0.000000	0.000000	0.000000
O	1.922710	1.922710	0.000000
O	0.000000	1.922710	1.922710
O	1.922710	0.000000	1.922710
Ga	1.922710	1.922710	5.768131
Na	0.000000	0.000000	3.845421
O	1.922710	1.922710	3.845421
O	0.000000	1.922710	5.768131
O	1.922710	0.000000	5.768131
Ga	1.922710	5.768131	1.922710
Na	0.000000	3.845421	0.000000
O	1.922710	5.768131	0.000000
O	0.000000	5.768131	1.922710
O	1.922710	3.845421	1.922710
Ga	1.922710	5.768131	5.768131
Na	0.000000	3.845421	3.845421
O	1.922710	5.768131	3.845421
O	0.000000	5.768131	5.768131
O	1.922710	3.845421	5.768131
Ga	5.768131	1.922710	1.922710
Na	3.845421	0.000000	0.000000
O	5.768131	1.922710	0.000000
O	3.845421	1.922710	1.922710
O	5.768131	0.000000	1.922710
Ga	5.768131	1.922710	5.768131
Na	3.845421	0.000000	3.845421
O	5.768131	1.922710	3.845421
O	3.845421	1.922710	5.768131
O	5.768131	0.000000	5.768131
Ga	5.768131	5.768131	1.922710
Na	3.845421	3.845421	0.000000
O	5.768131	5.768131	0.000000
O	3.845421	5.768131	1.922710
O	5.768131	3.845421	1.922710
Ga	5.768131	5.768131	5.768131
Na	3.845421	3.845421	3.845421
O	5.768131	5.768131	3.845421
O	3.845421	5.768131	5.768131
O	5.768131	3.845421	5.768131
