40

O	0.000000	2.062830	2.062830
O	2.062830	0.000000	2.062830
O	2.062830	2.062830	0.000000
P	0.000000	0.000000	0.000000
Te	2.062830	2.062830	2.062830
O	0.000000	2.062830	6.188489
O	2.062830	0.000000	6.188489
O	2.062830	2.062830	4.125660
P	0.000000	0.000000	4.125660
Te	2.062830	2.062830	6.188489
O	0.000000	6.188489	2.062830
O	2.062830	4.125660	2.062830
O	2.062830	6.188489	0.000000
P	0.000000	4.125660	0.000000
Te	2.062830	6.188489	2.062830
O	0.000000	6.188489	6.188489
O	2.062830	4.125660	6.188489
O	2.062830	6.188489	4.125660
P	0.000000	4.125660	4.125660
Te	2.062830	6.188489	6.188489
O	4.125660	2.062830	2.062830
O	6.188489	0.000000	2.062830
O	6.188489	2.062830	0.000000
P	4.125660	0.000000	0.000000
Te	6.188489	2.062830	2.062830
O	4.125660	2.062830	6.188489
O	6.188489	0.000000	6.188489
O	6.188489	2.062830	4.125660
P	4.125660	0.000000	4.125660
Te	6.188489	2.062830	6.188489
O	4.125660	6.188489	2.062830
O	6.188489	4.125660	2.062830
O	6.188489	6.188489	0.000000
P	4.125660	4.125660	0.000000
Te	6.188489	6.188489	2.062830
O	4.125660	6.188489	6.188489
O	6.188489	4.125660	6.188489
O	6.188489	6.188489	4.125660
P	4.125660	4.125660	4.125660
Te	6.188489	6.188489	6.188489
