40

O	1.938160	1.938160	0.000000
O	0.000000	1.938160	1.938160
O	1.938160	0.000000	1.938160
Tc_pv	1.938160	1.938160	1.938160
Yb_2	0.000000	0.000000	0.000000
O	1.938160	1.938160	3.876317
O	0.000000	1.938160	5.814477
O	1.938160	0.000000	5.814477
Tc_pv	1.938160	1.938160	5.814477
Yb_2	0.000000	0.000000	3.876317
O	1.938160	5.814477	0.000000
O	0.000000	5.814477	1.938160
O	1.938160	3.876317	1.938160
Tc_pv	1.938160	5.814477	1.938160
Yb_2	0.000000	3.876317	0.000000
O	1.938160	5.814477	3.876317
O	0.000000	5.814477	5.814477
O	1.938160	3.876317	5.814477
Tc_pv	1.938160	5.814477	5.814477
Yb_2	0.000000	3.876317	3.876317
O	5.814477	1.938160	0.000000
O	3.876317	1.938160	1.938160
O	5.814477	0.000000	1.938160
Tc_pv	5.814477	1.938160	1.938160
Yb_2	3.876317	0.000000	0.000000
O	5.814477	1.938160	3.876317
O	3.876317	1.938160	5.814477
O	5.814477	0.000000	5.814477
Tc_pv	5.814477	1.938160	5.814477
Yb_2	3.876317	0.000000	3.876317
O	5.814477	5.814477	0.000000
O	3.876317	5.814477	1.938160
O	5.814477	3.876317	1.938160
Tc_pv	5.814477	5.814477	1.938160
Yb_2	3.876317	3.876317	0.000000
O	5.814477	5.814477	3.876317
O	3.876317	5.814477	5.814477
O	5.814477	3.876317	5.814477
Tc_pv	5.814477	5.814477	5.814477
Yb_2	3.876317	3.876317	3.876317
