40

In	2.104504	2.104504	2.104504
O	0.000000	2.104504	2.104504
O	2.104504	0.000000	2.104504
O	2.104504	2.104504	0.000000
Pb	0.000000	0.000000	0.000000
In	2.104504	2.104504	6.313512
O	0.000000	2.104504	6.313512
O	2.104504	0.000000	6.313512
O	2.104504	2.104504	4.209008
Pb	0.000000	0.000000	4.209008
In	2.104504	6.313512	2.104504
O	0.000000	6.313512	2.104504
O	2.104504	4.209008	2.104504
O	2.104504	6.313512	0.000000
Pb	0.000000	4.209008	0.000000
In	2.104504	6.313512	6.313512
O	0.000000	6.313512	6.313512
O	2.104504	4.209008	6.313512
O	2.104504	6.313512	4.209008
Pb	0.000000	4.209008	4.209008
In	6.313512	2.104504	2.104504
O	4.209008	2.104504	2.104504
O	6.313512	0.000000	2.104504
O	6.313512	2.104504	0.000000
Pb	4.209008	0.000000	0.000000
In	6.313512	2.104504	6.313512
O	4.209008	2.104504	6.313512
O	6.313512	0.000000	6.313512
O	6.313512	2.104504	4.209008
Pb	4.209008	0.000000	4.209008
In	6.313512	6.313512	2.104504
O	4.209008	6.313512	2.104504
O	6.313512	4.209008	2.104504
O	6.313512	6.313512	0.000000
Pb	4.209008	4.209008	0.000000
In	6.313512	6.313512	6.313512
O	4.209008	6.313512	6.313512
O	6.313512	4.209008	6.313512
O	6.313512	6.313512	4.209008
Pb	4.209008	4.209008	4.209008
