288

Ca	0.000000	0.000000	0.000000
Ca	3.717741	3.717741	0.000000
Ca	3.717741	0.000000	3.717741
Ca	0.000000	3.717741	3.717741
N	6.239598	2.521857	1.195884
N	4.913626	6.239598	1.195884
N	2.521857	2.521857	2.521857
N	1.195884	6.239598	2.521857
N	6.239598	1.195884	4.913626
N	4.913626	4.913626	4.913626
N	2.521857	1.195884	6.239598
N	1.195884	4.913626	6.239598
O	5.652440	2.074603	0.170492
O	5.500783	5.792344	0.170492
O	7.264990	1.934699	1.643138
O	3.888233	5.652440	1.643138
O	5.792344	3.547249	1.783042
O	5.360879	7.264990	1.783042
O	2.074603	3.547249	1.934699
O	1.643138	7.264990	1.934699
O	3.547249	1.934699	2.074603
O	0.170492	5.652440	2.074603
O	1.934699	2.074603	3.547249
O	1.783042	5.792344	3.547249
O	5.652440	1.643138	3.888233
O	5.500783	5.360879	3.888233
O	7.264990	1.783042	5.360879
O	3.888233	5.500783	5.360879
O	5.792344	0.170492	5.500783
O	5.360879	3.888233	5.500783
O	2.074603	0.170492	5.652440
O	1.643138	3.888233	5.652440
O	3.547249	1.783042	5.792344
O	0.170492	5.500783	5.792344
O	1.934699	1.643138	7.264990
O	1.783042	5.360879	7.264990
Ca	0.000000	0.000000	7.435482
Ca	3.717741	3.717741	7.435482
Ca	3.717741	0.000000	11.153223
Ca	0.000000	3.717741	11.153223
N	6.239598	2.521857	8.631367
N	4.913626	6.239598	8.631367
N	2.521857	2.521857	9.957339
N	1.195884	6.239598	9.957339
N	6.239598	1.195884	12.349108
N	4.913626	4.913626	12.349108
N	2.521857	1.195884	13.675080
N	1.195884	4.913626	13.675080
O	5.652440	2.074603	7.605974
O	5.500783	5.792344	7.605974
O	7.264990	1.934699	9.078620
O	3.888233	5.652440	9.078620
O	5.792344	3.547249	9.218524
O	5.360879	7.264990	9.218524
O	2.074603	3.547249	9.370181
O	1.643138	7.264990	9.370181
O	3.547249	1.934699	9.510085
O	0.170492	5.652440	9.510085
O	1.934699	2.074603	10.982732
O	1.783042	5.792344	10.982732
O	5.652440	1.643138	11.323715
O	5.500783	5.360879	11.323715
O	7.264990	1.783042	12.796361
O	3.888233	5.500783	12.796361
O	5.792344	0.170492	12.936265
O	5.360879	3.888233	12.936265
O	2.074603	0.170492	13.087923
O	1.643138	3.888233	13.087923
O	3.547249	1.783042	13.227827
O	0.170492	5.500783	13.227827
O	1.934699	1.643138	14.700473
O	1.783042	5.360879	14.700473
Ca	0.000000	7.435482	0.000000
Ca	3.717741	11.153223	0.000000
Ca	3.717741	7.435482	3.717741
Ca	0.000000	11.153223	3.717741
N	6.239598	9.957339	1.195884
N	4.913626	13.675080	1.195884
N	2.521857	9.957339	2.521857
N	1.195884	13.675080	2.521857
N	6.239598	8.631367	4.913626
N	4.913626	12.349108	4.913626
N	2.521857	8.631367	6.239598
N	1.195884	12.349108	6.239598
O	5.652440	9.510085	0.170492
O	5.500783	13.227827	0.170492
O	7.264990	9.370181	1.643138
O	3.888233	13.087923	1.643138
O	5.792344	10.982732	1.783042
O	5.360879	14.700473	1.783042
O	2.074603	10.982732	1.934699
O	1.643138	14.700473	1.934699
O	3.547249	9.370181	2.074603
O	0.170492	13.087923	2.074603
O	1.934699	9.510085	3.547249
O	1.783042	13.227827	3.547249
O	5.652440	9.078620	3.888233
O	5.500783	12.796361	3.888233
O	7.264990	9.218524	5.360879
O	3.888233	12.936265	5.360879
O	5.792344	7.605974	5.500783
O	5.360879	11.323715	5.500783
O	2.074603	7.605974	5.652440
O	1.643138	11.323715	5.652440
O	3.547249	9.218524	5.792344
O	0.170492	12.936265	5.792344
O	1.934699	9.078620	7.264990
O	1.783042	12.796361	7.264990
Ca	0.000000	7.435482	7.435482
Ca	3.717741	11.153223	7.435482
Ca	3.717741	7.435482	11.153223
Ca	0.000000	11.153223	11.153223
N	6.239598	9.957339	8.631367
N	4.913626	13.675080	8.631367
N	2.521857	9.957339	9.957339
N	1.195884	13.675080	9.957339
N	6.239598	8.631367	12.349108
N	4.913626	12.349108	12.349108
N	2.521857	8.631367	13.675080
N	1.195884	12.349108	13.675080
O	5.652440	9.510085	7.605974
O	5.500783	13.227827	7.605974
O	7.264990	9.370181	9.078620
O	3.888233	13.087923	9.078620
O	5.792344	10.982732	9.218524
O	5.360879	14.700473	9.218524
O	2.074603	10.982732	9.370181
O	1.643138	14.700473	9.370181
O	3.547249	9.370181	9.510085
O	0.170492	13.087923	9.510085
O	1.934699	9.510085	10.982732
O	1.783042	13.227827	10.982732
O	5.652440	9.078620	11.323715
O	5.500783	12.796361	11.323715
O	7.264990	9.218524	12.796361
O	3.888233	12.936265	12.796361
O	5.792344	7.605974	12.936265
O	5.360879	11.323715	12.936265
O	2.074603	7.605974	13.087923
O	1.643138	11.323715	13.087923
O	3.547249	9.218524	13.227827
O	0.170492	12.936265	13.227827
O	1.934699	9.078620	14.700473
O	1.783042	12.796361	14.700473
Ca	7.435482	0.000000	0.000000
Ca	11.153223	3.717741	0.000000
Ca	11.153223	0.000000	3.717741
Ca	7.435482	3.717741	3.717741
N	13.675080	2.521857	1.195884
N	12.349108	6.239598	1.195884
N	9.957339	2.521857	2.521857
N	8.631367	6.239598	2.521857
N	13.675080	1.195884	4.913626
N	12.349108	4.913626	4.913626
N	9.957339	1.195884	6.239598
N	8.631367	4.913626	6.239598
O	13.087923	2.074603	0.170492
O	12.936265	5.792344	0.170492
O	14.700473	1.934699	1.643138
O	11.323715	5.652440	1.643138
O	13.227827	3.547249	1.783042
O	12.796361	7.264990	1.783042
O	9.510085	3.547249	1.934699
O	9.078620	7.264990	1.934699
O	10.982732	1.934699	2.074603
O	7.605974	5.652440	2.074603
O	9.370181	2.074603	3.547249
O	9.218524	5.792344	3.547249
O	13.087923	1.643138	3.888233
O	12.936265	5.360879	3.888233
O	14.700473	1.783042	5.360879
O	11.323715	5.500783	5.360879
O	13.227827	0.170492	5.500783
O	12.796361	3.888233	5.500783
O	9.510085	0.170492	5.652440
O	9.078620	3.888233	5.652440
O	10.982732	1.783042	5.792344
O	7.605974	5.500783	5.792344
O	9.370181	1.643138	7.264990
O	9.218524	5.360879	7.264990
Ca	7.435482	0.000000	7.435482
Ca	11.153223	3.717741	7.435482
Ca	11.153223	0.000000	11.153223
Ca	7.435482	3.717741	11.153223
N	13.675080	2.521857	8.631367
N	12.349108	6.239598	8.631367
N	9.957339	2.521857	9.957339
N	8.631367	6.239598	9.957339
N	13.675080	1.195884	12.349108
N	12.349108	4.913626	12.349108
N	9.957339	1.195884	13.675080
N	8.631367	4.913626	13.675080
O	13.087923	2.074603	7.605974
O	12.936265	5.792344	7.605974
O	14.700473	1.934699	9.078620
O	11.323715	5.652440	9.078620
O	13.227827	3.547249	9.218524
O	12.796361	7.264990	9.218524
O	9.510085	3.547249	9.370181
O	9.078620	7.264990	9.370181
O	10.982732	1.934699	9.510085
O	7.605974	5.652440	9.510085
O	9.370181	2.074603	10.982732
O	9.218524	5.792344	10.982732
O	13.087923	1.643138	11.323715
O	12.936265	5.360879	11.323715
O	14.700473	1.783042	12.796361
O	11.323715	5.500783	12.796361
O	13.227827	0.170492	12.936265
O	12.796361	3.888233	12.936265
O	9.510085	0.170492	13.087923
O	9.078620	3.888233	13.087923
O	10.982732	1.783042	13.227827
O	7.605974	5.500783	13.227827
O	9.370181	1.643138	14.700473
O	9.218524	5.360879	14.700473
Ca	7.435482	7.435482	0.000000
Ca	11.153223	11.153223	0.000000
Ca	11.153223	7.435482	3.717741
Ca	7.435482	11.153223	3.717741
N	13.675080	9.957339	1.195884
N	12.349108	13.675080	1.195884
N	9.957339	9.957339	2.521857
N	8.631367	13.675080	2.521857
N	13.675080	8.631367	4.913626
N	12.349108	12.349108	4.913626
N	9.957339	8.631367	6.239598
N	8.631367	12.349108	6.239598
O	13.087923	9.510085	0.170492
O	12.936265	13.227827	0.170492
O	14.700473	9.370181	1.643138
O	11.323715	13.087923	1.643138
O	13.227827	10.982732	1.783042
O	12.796361	14.700473	1.783042
O	9.510085	10.982732	1.934699
O	9.078620	14.700473	1.934699
O	10.982732	9.370181	2.074603
O	7.605974	13.087923	2.074603
O	9.370181	9.510085	3.547249
O	9.218524	13.227827	3.547249
O	13.087923	9.078620	3.888233
O	12.936265	12.796361	3.888233
O	14.700473	9.218524	5.360879
O	11.323715	12.936265	5.360879
O	13.227827	7.605974	5.500783
O	12.796361	11.323715	5.500783
O	9.510085	7.605974	5.652440
O	9.078620	11.323715	5.652440
O	10.982732	9.218524	5.792344
O	7.605974	12.936265	5.792344
O	9.370181	9.078620	7.264990
O	9.218524	12.796361	7.264990
Ca	7.435482	7.435482	7.435482
Ca	11.153223	11.153223	7.435482
Ca	11.153223	7.435482	11.153223
Ca	7.435482	11.153223	11.153223
N	13.675080	9.957339	8.631367
N	12.349108	13.675080	8.631367
N	9.957339	9.957339	9.957339
N	8.631367	13.675080	9.957339
N	13.675080	8.631367	12.349108
N	12.349108	12.349108	12.349108
N	9.957339	8.631367	13.675080
N	8.631367	12.349108	13.675080
O	13.087923	9.510085	7.605974
O	12.936265	13.227827	7.605974
O	14.700473	9.370181	9.078620
O	11.323715	13.087923	9.078620
O	13.227827	10.982732	9.218524
O	12.796361	14.700473	9.218524
O	9.510085	10.982732	9.370181
O	9.078620	14.700473	9.370181
O	10.982732	9.370181	9.510085
O	7.605974	13.087923	9.510085
O	9.370181	9.510085	10.982732
O	9.218524	13.227827	10.982732
O	13.087923	9.078620	11.323715
O	12.936265	12.796361	11.323715
O	14.700473	9.218524	12.796361
O	11.323715	12.936265	12.796361
O	13.227827	7.605974	12.936265
O	12.796361	11.323715	12.936265
O	9.510085	7.605974	13.087923
O	9.078620	11.323715	13.087923
O	10.982732	9.218524	13.227827
O	7.605974	12.936265	13.227827
O	9.370181	9.078620	14.700473
O	9.218524	12.796361	14.700473
