40

Nd	0.000000	0.000000	0.000000
Ni	1.923190	1.923190	1.923190
O	1.923190	1.923190	0.000000
O	1.923190	0.000000	1.923190
O	0.000000	1.923190	1.923190
Nd	0.000000	0.000000	3.846381
Ni	1.923190	1.923190	5.769571
O	1.923190	1.923190	3.846381
O	1.923190	0.000000	5.769571
O	0.000000	1.923190	5.769571
Nd	0.000000	3.846381	0.000000
Ni	1.923190	5.769571	1.923190
O	1.923190	5.769571	0.000000
O	1.923190	3.846381	1.923190
O	0.000000	5.769571	1.923190
Nd	0.000000	3.846381	3.846381
Ni	1.923190	5.769571	5.769571
O	1.923190	5.769571	3.846381
O	1.923190	3.846381	5.769571
O	0.000000	5.769571	5.769571
Nd	3.846381	0.000000	0.000000
Ni	5.769571	1.923190	1.923190
O	5.769571	1.923190	0.000000
O	5.769571	0.000000	1.923190
O	3.846381	1.923190	1.923190
Nd	3.846381	0.000000	3.846381
Ni	5.769571	1.923190	5.769571
O	5.769571	1.923190	3.846381
O	5.769571	0.000000	5.769571
O	3.846381	1.923190	5.769571
Nd	3.846381	3.846381	0.000000
Ni	5.769571	5.769571	1.923190
O	5.769571	5.769571	0.000000
O	5.769571	3.846381	1.923190
O	3.846381	5.769571	1.923190
Nd	3.846381	3.846381	3.846381
Ni	5.769571	5.769571	5.769571
O	5.769571	5.769571	3.846381
O	5.769571	3.846381	5.769571
O	3.846381	5.769571	5.769571
