40

B	0.000000	0.000000	0.000000
O	2.259455	2.259455	0.000000
O	2.259455	0.000000	2.259455
O	0.000000	2.259455	2.259455
Sr	2.259455	2.259455	2.259455
B	0.000000	0.000000	4.518917
O	2.259455	2.259455	4.518917
O	2.259455	0.000000	6.778371
O	0.000000	2.259455	6.778371
Sr	2.259455	2.259455	6.778371
B	0.000000	4.518917	0.000000
O	2.259455	6.778371	0.000000
O	2.259455	4.518917	2.259455
O	0.000000	6.778371	2.259455
Sr	2.259455	6.778371	2.259455
B	0.000000	4.518917	4.518917
O	2.259455	6.778371	4.518917
O	2.259455	4.518917	6.778371
O	0.000000	6.778371	6.778371
Sr	2.259455	6.778371	6.778371
B	4.518917	0.000000	0.000000
O	6.778371	2.259455	0.000000
O	6.778371	0.000000	2.259455
O	4.518917	2.259455	2.259455
Sr	6.778371	2.259455	2.259455
B	4.518917	0.000000	4.518917
O	6.778371	2.259455	4.518917
O	6.778371	0.000000	6.778371
O	4.518917	2.259455	6.778371
Sr	6.778371	2.259455	6.778371
B	4.518917	4.518917	0.000000
O	6.778371	6.778371	0.000000
O	6.778371	4.518917	2.259455
O	4.518917	6.778371	2.259455
Sr	6.778371	6.778371	2.259455
B	4.518917	4.518917	4.518917
O	6.778371	6.778371	4.518917
O	6.778371	4.518917	6.778371
O	4.518917	6.778371	6.778371
Sr	6.778371	6.778371	6.778371
