40

B	0.000000	0.000000	0.000000
O	0.000000	2.381829	2.381829
O	2.381829	0.000000	2.381829
O	2.381829	2.381829	0.000000
Sr	2.381829	2.381829	2.381829
B	0.000000	0.000000	4.763657
O	0.000000	2.381829	7.145486
O	2.381829	0.000000	7.145486
O	2.381829	2.381829	4.763657
Sr	2.381829	2.381829	7.145486
B	0.000000	4.763657	0.000000
O	0.000000	7.145486	2.381829
O	2.381829	4.763657	2.381829
O	2.381829	7.145486	0.000000
Sr	2.381829	7.145486	2.381829
B	0.000000	4.763657	4.763657
O	0.000000	7.145486	7.145486
O	2.381829	4.763657	7.145486
O	2.381829	7.145486	4.763657
Sr	2.381829	7.145486	7.145486
B	4.763657	0.000000	0.000000
O	4.763657	2.381829	2.381829
O	7.145486	0.000000	2.381829
O	7.145486	2.381829	0.000000
Sr	7.145486	2.381829	2.381829
B	4.763657	0.000000	4.763657
O	4.763657	2.381829	7.145486
O	7.145486	0.000000	7.145486
O	7.145486	2.381829	4.763657
Sr	7.145486	2.381829	7.145486
B	4.763657	4.763657	0.000000
O	4.763657	7.145486	2.381829
O	7.145486	4.763657	2.381829
O	7.145486	7.145486	0.000000
Sr	7.145486	7.145486	2.381829
B	4.763657	4.763657	4.763657
O	4.763657	7.145486	7.145486
O	7.145486	4.763657	7.145486
O	7.145486	7.145486	4.763657
Sr	7.145486	7.145486	7.145486
