40

Ba	0.000000	0.000000	0.000000
O	0.000000	2.043229	2.043229
O	2.043229	0.000000	2.043229
O	2.043229	2.043229	0.000000
Ru	2.043229	2.043229	2.043229
Ba	0.000000	0.000000	4.086459
O	0.000000	2.043229	6.129688
O	2.043229	0.000000	6.129688
O	2.043229	2.043229	4.086459
Ru	2.043229	2.043229	6.129688
Ba	0.000000	4.086459	0.000000
O	0.000000	6.129688	2.043229
O	2.043229	4.086459	2.043229
O	2.043229	6.129688	0.000000
Ru	2.043229	6.129688	2.043229
Ba	0.000000	4.086459	4.086459
O	0.000000	6.129688	6.129688
O	2.043229	4.086459	6.129688
O	2.043229	6.129688	4.086459
Ru	2.043229	6.129688	6.129688
Ba	4.086459	0.000000	0.000000
O	4.086459	2.043229	2.043229
O	6.129688	0.000000	2.043229
O	6.129688	2.043229	0.000000
Ru	6.129688	2.043229	2.043229
Ba	4.086459	0.000000	4.086459
O	4.086459	2.043229	6.129688
O	6.129688	0.000000	6.129688
O	6.129688	2.043229	4.086459
Ru	6.129688	2.043229	6.129688
Ba	4.086459	4.086459	0.000000
O	4.086459	6.129688	2.043229
O	6.129688	4.086459	2.043229
O	6.129688	6.129688	0.000000
Ru	6.129688	6.129688	2.043229
Ba	4.086459	4.086459	4.086459
O	4.086459	6.129688	6.129688
O	6.129688	4.086459	6.129688
O	6.129688	6.129688	4.086459
Ru	6.129688	6.129688	6.129688
