112

Co	0.000000	0.000000	0.000000
Co	2.319814	-2.320094	-2.320094
O	3.525171	-1.114219	-1.114219
O	-1.114447	1.114219	-3.525969
O	1.114447	-1.114219	-3.525969
O	1.205357	1.205875	-1.205875
O	5.754075	1.114219	-1.114219
O	1.205357	3.434313	-3.434313
O	3.434261	3.434313	-1.205875
O	3.434261	1.205875	-3.434313
Y	-1.159902	-1.160047	-3.480141
Y	1.159902	1.160047	-3.480141
Y	3.479716	1.160047	-1.160047
Y	5.799530	-1.160047	-1.160047
Co	4.639622	4.640187	0.000000
Co	6.959436	2.320093	-2.320094
O	8.164793	3.525969	-1.114219
O	3.525175	5.754406	-3.525969
O	5.754069	3.525969	-3.525969
O	5.844979	5.846063	-1.205875
O	10.393697	5.754406	-1.114219
O	5.844979	8.074500	-3.434313
O	8.073883	8.074500	-1.205875
O	8.073883	5.846063	-3.434313
Y	3.479720	3.480140	-3.480141
Y	5.799524	5.800234	-3.480141
Y	8.119338	5.800234	-1.160047
Y	10.439152	3.480140	-1.160047
Co	-4.639622	0.000000	-4.640187
Co	-2.319808	-2.320094	-6.960281
O	-1.114452	-1.114219	-5.754406
O	-5.754069	1.114219	-8.166157
O	-3.525175	-1.114219	-8.166157
O	-3.434265	1.205875	-5.846063
O	1.114453	1.114219	-5.754406
O	-3.434265	3.434313	-8.074500
O	-1.205361	3.434313	-5.846063
O	-1.205361	1.205875	-8.074500
Y	-5.799524	-1.160047	-8.120328
Y	-3.479720	1.160047	-8.120328
Y	-1.159906	1.160047	-5.800234
Y	1.159908	-1.160047	-5.800234
Co	0.000000	4.640187	-4.640187
Co	2.319814	2.320093	-6.960281
O	3.525171	3.525969	-5.754406
O	-1.114447	5.754406	-8.166157
O	1.114447	3.525969	-8.166157
O	1.205357	5.846063	-5.846063
O	5.754075	5.754406	-5.754406
O	1.205357	8.074500	-8.074500
O	3.434261	8.074500	-5.846063
O	3.434261	5.846063	-8.074500
Y	-1.159902	3.480140	-8.120328
Y	1.159902	5.800234	-8.120328
Y	3.479716	5.800234	-5.800234
Y	5.799530	3.480140	-5.800234
Co	4.639622	-4.640187	0.000000
Co	6.959436	-6.960281	-2.320094
O	8.164793	-5.754406	-1.114219
O	3.525175	-3.525969	-3.525969
O	5.754069	-5.754406	-3.525969
O	5.844979	-3.434312	-1.205875
O	10.393697	-3.525969	-1.114219
O	5.844979	-1.205875	-3.434313
O	8.073883	-1.205875	-1.205875
O	8.073883	-3.434312	-3.434313
Y	3.479720	-5.800234	-3.480141
Y	5.799524	-3.480140	-3.480141
Y	8.119338	-3.480140	-1.160047
Y	10.439152	-5.800234	-1.160047
Co	9.279244	0.000000	0.000000
Co	11.599058	-2.320094	-2.320094
O	12.804415	-1.114219	-1.114219
O	8.164797	1.114219	-3.525969
O	10.393691	-1.114219	-3.525969
O	10.484601	1.205875	-1.205875
O	15.033319	1.114219	-1.114219
O	10.484601	3.434313	-3.434313
O	12.713505	3.434313	-1.205875
O	12.713505	1.205875	-3.434313
Y	8.119342	-1.160047	-3.480141
Y	10.439146	1.160047	-3.480141
Y	12.758960	1.160047	-1.160047
Y	15.078774	-1.160047	-1.160047
Co	0.000000	-4.640187	-4.640187
Co	2.319814	-6.960281	-6.960281
O	3.525171	-5.754406	-5.754406
O	-1.114447	-3.525969	-8.166157
O	1.114447	-5.754406	-8.166157
O	1.205357	-3.434312	-5.846063
O	5.754075	-3.525969	-5.754406
O	1.205357	-1.205875	-8.074500
O	3.434261	-1.205875	-5.846063
O	3.434261	-3.434312	-8.074500
Y	-1.159902	-5.800234	-8.120328
Y	1.159902	-3.480140	-8.120328
Y	3.479716	-3.480140	-5.800234
Y	5.799530	-5.800234	-5.800234
Co	4.639622	0.000000	-4.640187
Co	6.959436	-2.320094	-6.960281
O	8.164793	-1.114219	-5.754406
O	3.525175	1.114219	-8.166157
O	5.754069	-1.114219	-8.166157
O	5.844979	1.205875	-5.846063
O	10.393697	1.114219	-5.754406
O	5.844979	3.434313	-8.074500
O	8.073883	3.434313	-5.846063
O	8.073883	1.205875	-8.074500
Y	3.479720	-1.160047	-8.120328
Y	5.799524	1.160047	-8.120328
Y	8.119338	1.160047	-5.800234
Y	10.439152	-1.160047	-5.800234
