40

Na	1.919227	1.919227	1.919227
O	0.000000	1.919227	1.919227
O	1.919227	0.000000	1.919227
O	1.919227	1.919227	0.000000
W	0.000000	0.000000	0.000000
Na	1.919227	1.919227	5.757680
O	0.000000	1.919227	5.757680
O	1.919227	0.000000	5.757680
O	1.919227	1.919227	3.838453
W	0.000000	0.000000	3.838453
Na	1.919227	5.757680	1.919227
O	0.000000	5.757680	1.919227
O	1.919227	3.838453	1.919227
O	1.919227	5.757680	0.000000
W	0.000000	3.838453	0.000000
Na	1.919227	5.757680	5.757680
O	0.000000	5.757680	5.757680
O	1.919227	3.838453	5.757680
O	1.919227	5.757680	3.838453
W	0.000000	3.838453	3.838453
Na	5.757680	1.919227	1.919227
O	3.838453	1.919227	1.919227
O	5.757680	0.000000	1.919227
O	5.757680	1.919227	0.000000
W	3.838453	0.000000	0.000000
Na	5.757680	1.919227	5.757680
O	3.838453	1.919227	5.757680
O	5.757680	0.000000	5.757680
O	5.757680	1.919227	3.838453
W	3.838453	0.000000	3.838453
Na	5.757680	5.757680	1.919227
O	3.838453	5.757680	1.919227
O	5.757680	3.838453	1.919227
O	5.757680	5.757680	0.000000
W	3.838453	3.838453	0.000000
Na	5.757680	5.757680	5.757680
O	3.838453	5.757680	5.757680
O	5.757680	3.838453	5.757680
O	5.757680	5.757680	3.838453
W	3.838453	3.838453	3.838453
