40

Ba	2.320243	2.320243	2.320243
Nb	0.000000	0.000000	0.000000
O	0.000000	2.320243	2.320243
O	2.320243	0.000000	2.320243
O	2.320243	2.320243	0.000000
Ba	2.320243	2.320243	6.960728
Nb	0.000000	0.000000	4.640486
O	0.000000	2.320243	6.960728
O	2.320243	0.000000	6.960728
O	2.320243	2.320243	4.640486
Ba	2.320243	6.960728	2.320243
Nb	0.000000	4.640486	0.000000
O	0.000000	6.960728	2.320243
O	2.320243	4.640486	2.320243
O	2.320243	6.960728	0.000000
Ba	2.320243	6.960728	6.960728
Nb	0.000000	4.640486	4.640486
O	0.000000	6.960728	6.960728
O	2.320243	4.640486	6.960728
O	2.320243	6.960728	4.640486
Ba	6.960728	2.320243	2.320243
Nb	4.640486	0.000000	0.000000
O	4.640486	2.320243	2.320243
O	6.960728	0.000000	2.320243
O	6.960728	2.320243	0.000000
Ba	6.960728	2.320243	6.960728
Nb	4.640486	0.000000	4.640486
O	4.640486	2.320243	6.960728
O	6.960728	0.000000	6.960728
O	6.960728	2.320243	4.640486
Ba	6.960728	6.960728	2.320243
Nb	4.640486	4.640486	0.000000
O	4.640486	6.960728	2.320243
O	6.960728	4.640486	2.320243
O	6.960728	6.960728	0.000000
Ba	6.960728	6.960728	6.960728
Nb	4.640486	4.640486	4.640486
O	4.640486	6.960728	6.960728
O	6.960728	4.640486	6.960728
O	6.960728	6.960728	4.640486
