112

As	0.000000	0.000000	0.000000
As	2.075518	-2.075497	-2.075497
Li	-1.037759	-1.037748	-3.113245
Li	3.113277	1.037748	-1.037748
Li	5.188795	-1.037748	-1.037748
Li	1.037759	1.037748	-3.113245
O	3.073299	-1.077423	-1.077423
O	-1.077737	1.077423	-3.073570
O	1.077737	-1.077423	-3.073570
O	0.997781	0.998073	-0.998073
O	5.228773	1.077423	-1.077423
O	0.997781	3.152920	-3.152920
O	3.153255	3.152920	-0.998073
O	3.153255	0.998073	-3.152920
As	4.151036	4.150993	0.000000
As	6.226554	2.075497	-2.075497
Li	3.113277	3.113245	-3.113245
Li	7.264313	5.188741	-1.037748
Li	9.339831	3.113245	-1.037748
Li	5.188795	5.188741	-3.113245
O	7.224335	3.073570	-1.077423
O	3.073299	5.228417	-3.073570
O	5.228773	3.073570	-3.073570
O	5.148817	5.149066	-0.998073
O	9.379810	5.228417	-1.077423
O	5.148817	7.303913	-3.152920
O	7.304292	7.303913	-0.998073
O	7.304292	5.149066	-3.152920
As	-4.151036	0.000000	-4.150993
As	-2.075518	-2.075497	-6.226490
Li	-5.188795	-1.037748	-7.264238
Li	-1.037759	1.037748	-5.188741
Li	1.037759	-1.037748	-5.188741
Li	-3.113277	1.037748	-7.264238
O	-1.077737	-1.077423	-5.228417
O	-5.228773	1.077423	-7.224563
O	-3.073299	-1.077423	-7.224563
O	-3.153255	0.998073	-5.149066
O	1.077737	1.077423	-5.228417
O	-3.153255	3.152920	-7.303913
O	-0.997781	3.152920	-5.149066
O	-0.997781	0.998073	-7.303913
As	0.000000	4.150993	-4.150993
As	2.075518	2.075497	-6.226490
Li	-1.037759	3.113245	-7.264238
Li	3.113277	5.188741	-5.188741
Li	5.188795	3.113245	-5.188741
Li	1.037759	5.188741	-7.264238
O	3.073299	3.073570	-5.228417
O	-1.077737	5.228417	-7.224563
O	1.077737	3.073570	-7.224563
O	0.997781	5.149066	-5.149066
O	5.228773	5.228417	-5.228417
O	0.997781	7.303913	-7.303913
O	3.153255	7.303913	-5.149066
O	3.153255	5.149066	-7.303913
As	4.151036	-4.150993	0.000000
As	6.226554	-6.226490	-2.075497
Li	3.113277	-5.188741	-3.113245
Li	7.264313	-3.113245	-1.037748
Li	9.339831	-5.188741	-1.037748
Li	5.188795	-3.113245	-3.113245
O	7.224335	-5.228417	-1.077423
O	3.073299	-3.073570	-3.073570
O	5.228773	-5.228417	-3.073570
O	5.148817	-3.152920	-0.998073
O	9.379810	-3.073570	-1.077423
O	5.148817	-0.998073	-3.152920
O	7.304292	-0.998073	-0.998073
O	7.304292	-3.152920	-3.152920
As	8.302072	0.000000	0.000000
As	10.377590	-2.075497	-2.075497
Li	7.264313	-1.037748	-3.113245
Li	11.415349	1.037748	-1.037748
Li	13.490868	-1.037748	-1.037748
Li	9.339831	1.037748	-3.113245
O	11.375371	-1.077423	-1.077423
O	7.224335	1.077423	-3.073570
O	9.379810	-1.077423	-3.073570
O	9.299853	0.998073	-0.998073
O	13.530846	1.077423	-1.077423
O	9.299853	3.152920	-3.152920
O	11.455328	3.152920	-0.998073
O	11.455328	0.998073	-3.152920
As	0.000000	-4.150993	-4.150993
As	2.075518	-6.226490	-6.226490
Li	-1.037759	-5.188741	-7.264238
Li	3.113277	-3.113245	-5.188741
Li	5.188795	-5.188741	-5.188741
Li	1.037759	-3.113245	-7.264238
O	3.073299	-5.228417	-5.228417
O	-1.077737	-3.073570	-7.224563
O	1.077737	-5.228417	-7.224563
O	0.997781	-3.152920	-5.149066
O	5.228773	-3.073570	-5.228417
O	0.997781	-0.998073	-7.303913
O	3.153255	-0.998073	-5.149066
O	3.153255	-3.152920	-7.303913
As	4.151036	0.000000	-4.150993
As	6.226554	-2.075497	-6.226490
Li	3.113277	-1.037748	-7.264238
Li	7.264313	1.037748	-5.188741
Li	9.339831	-1.037748	-5.188741
Li	5.188795	1.037748	-7.264238
O	7.224335	-1.077423	-5.228417
O	3.073299	1.077423	-7.224563
O	5.228773	-1.077423	-7.224563
O	5.148817	0.998073	-5.149066
O	9.379810	1.077423	-5.228417
O	5.148817	3.152920	-7.303913
O	7.304292	3.152920	-5.149066
O	7.304292	0.998073	-7.303913
