112

O	3.828345	-1.176495	-1.176495
O	-1.190286	1.176495	-3.806814
O	1.190286	-1.176495	-3.806814
O	1.319030	1.315160	-1.315160
O	6.208917	1.176495	-1.176495
O	1.319030	3.668150	-3.668150
O	3.699601	3.668150	-1.315160
O	3.699601	1.315160	-3.668150
Pr	0.000000	0.000000	0.000000
Pr	2.509316	-2.491655	-2.491655
Pu	-1.254658	-1.245827	-3.737482
Pu	3.763973	1.245827	-1.245827
Pu	6.273289	-1.245827	-1.245827
Pu	1.254658	1.245827	-3.737482
O	8.846976	3.806814	-1.176495
O	3.828345	6.159805	-3.806814
O	6.208917	3.806814	-3.806814
O	6.337661	6.298469	-1.315160
O	11.227548	6.159805	-1.176495
O	6.337661	8.651459	-3.668150
O	8.718232	8.651459	-1.315160
O	8.718232	6.298469	-3.668150
Pr	5.018631	4.983309	0.000000
Pr	7.527947	2.491655	-2.491655
Pu	3.763973	3.737482	-3.737482
Pu	8.782604	6.229137	-1.245827
Pu	11.291920	3.737482	-1.245827
Pu	6.273289	6.229137	-3.737482
O	-1.190286	-1.176495	-6.159805
O	-6.208917	1.176495	-8.790124
O	-3.828345	-1.176495	-8.790124
O	-3.699601	1.315160	-6.298469
O	1.190286	1.176495	-6.159805
O	-3.699601	3.668150	-8.651459
O	-1.319030	3.668150	-6.298469
O	-1.319030	1.315160	-8.651459
Pr	-5.018631	0.000000	-4.983309
Pr	-2.509315	-2.491655	-7.474964
Pu	-6.273289	-1.245827	-8.720792
Pu	-1.254658	1.245827	-6.229137
Pu	1.254658	-1.245827	-6.229137
Pu	-3.763973	1.245827	-8.720792
O	3.828345	3.806814	-6.159805
O	-1.190286	6.159805	-8.790124
O	1.190286	3.806814	-8.790124
O	1.319030	6.298469	-6.298469
O	6.208917	6.159805	-6.159805
O	1.319030	8.651459	-8.651459
O	3.699601	8.651459	-6.298469
O	3.699601	6.298469	-8.651459
Pr	0.000000	4.983309	-4.983309
Pr	2.509316	2.491655	-7.474964
Pu	-1.254658	3.737482	-8.720792
Pu	3.763973	6.229137	-6.229137
Pu	6.273289	3.737482	-6.229137
Pu	1.254658	6.229137	-8.720792
O	8.846976	-6.159805	-1.176495
O	3.828345	-3.806814	-3.806814
O	6.208917	-6.159805	-3.806814
O	6.337661	-3.668150	-1.315160
O	11.227548	-3.806814	-1.176495
O	6.337661	-1.315160	-3.668150
O	8.718232	-1.315160	-1.315160
O	8.718232	-3.668150	-3.668150
Pr	5.018631	-4.983309	0.000000
Pr	7.527947	-7.474964	-2.491655
Pu	3.763973	-6.229137	-3.737482
Pu	8.782604	-3.737482	-1.245827
Pu	11.291920	-6.229137	-1.245827
Pu	6.273289	-3.737482	-3.737482
O	13.865607	-1.176495	-1.176495
O	8.846976	1.176495	-3.806814
O	11.227548	-1.176495	-3.806814
O	11.356292	1.315160	-1.315160
O	16.246179	1.176495	-1.176495
O	11.356292	3.668150	-3.668150
O	13.736863	3.668150	-1.315160
O	13.736863	1.315160	-3.668150
Pr	10.037262	0.000000	0.000000
Pr	12.546578	-2.491655	-2.491655
Pu	8.782604	-1.245827	-3.737482
Pu	13.801235	1.245827	-1.245827
Pu	16.310551	-1.245827	-1.245827
Pu	11.291920	1.245827	-3.737482
O	3.828345	-6.159805	-6.159805
O	-1.190286	-3.806814	-8.790124
O	1.190286	-6.159805	-8.790124
O	1.319030	-3.668150	-6.298469
O	6.208917	-3.806814	-6.159805
O	1.319030	-1.315160	-8.651459
O	3.699601	-1.315160	-6.298469
O	3.699601	-3.668150	-8.651459
Pr	0.000000	-4.983309	-4.983309
Pr	2.509316	-7.474964	-7.474964
Pu	-1.254658	-6.229137	-8.720792
Pu	3.763973	-3.737482	-6.229137
Pu	6.273289	-6.229137	-6.229137
Pu	1.254658	-3.737482	-8.720792
O	8.846976	-1.176495	-6.159805
O	3.828345	1.176495	-8.790124
O	6.208917	-1.176495	-8.790124
O	6.337661	1.315160	-6.298469
O	11.227548	1.176495	-6.159805
O	6.337661	3.668150	-8.651459
O	8.718232	3.668150	-6.298469
O	8.718232	1.315160	-8.651459
Pr	5.018631	0.000000	-4.983309
Pr	7.527947	-2.491655	-7.474964
Pu	3.763973	-1.245827	-8.720792
Pu	8.782604	1.245827	-6.229137
Pu	11.291920	-1.245827	-6.229137
Pu	6.273289	1.245827	-8.720792
