40

Br	2.023304	2.023304	2.023304
O	0.000000	2.023304	2.023304
O	2.023304	0.000000	2.023304
O	2.023304	2.023304	0.000000
Ru	0.000000	0.000000	0.000000
Br	2.023304	2.023304	6.069913
O	0.000000	2.023304	6.069913
O	2.023304	0.000000	6.069913
O	2.023304	2.023304	4.046609
Ru	0.000000	0.000000	4.046609
Br	2.023304	6.069913	2.023304
O	0.000000	6.069913	2.023304
O	2.023304	4.046609	2.023304
O	2.023304	6.069913	0.000000
Ru	0.000000	4.046609	0.000000
Br	2.023304	6.069913	6.069913
O	0.000000	6.069913	6.069913
O	2.023304	4.046609	6.069913
O	2.023304	6.069913	4.046609
Ru	0.000000	4.046609	4.046609
Br	6.069913	2.023304	2.023304
O	4.046609	2.023304	2.023304
O	6.069913	0.000000	2.023304
O	6.069913	2.023304	0.000000
Ru	4.046609	0.000000	0.000000
Br	6.069913	2.023304	6.069913
O	4.046609	2.023304	6.069913
O	6.069913	0.000000	6.069913
O	6.069913	2.023304	4.046609
Ru	4.046609	0.000000	4.046609
Br	6.069913	6.069913	2.023304
O	4.046609	6.069913	2.023304
O	6.069913	4.046609	2.023304
O	6.069913	6.069913	0.000000
Ru	4.046609	4.046609	0.000000
Br	6.069913	6.069913	6.069913
O	4.046609	6.069913	6.069913
O	6.069913	4.046609	6.069913
O	6.069913	6.069913	4.046609
Ru	4.046609	4.046609	4.046609
