40

Au	2.058667	2.058667	2.058667
O	0.000000	2.058667	2.058667
O	2.058667	0.000000	2.058667
O	2.058667	2.058667	0.000000
Sr	0.000000	0.000000	0.000000
Au	2.058667	2.058667	6.176001
O	0.000000	2.058667	6.176001
O	2.058667	0.000000	6.176001
O	2.058667	2.058667	4.117334
Sr	0.000000	0.000000	4.117334
Au	2.058667	6.176001	2.058667
O	0.000000	6.176001	2.058667
O	2.058667	4.117334	2.058667
O	2.058667	6.176001	0.000000
Sr	0.000000	4.117334	0.000000
Au	2.058667	6.176001	6.176001
O	0.000000	6.176001	6.176001
O	2.058667	4.117334	6.176001
O	2.058667	6.176001	4.117334
Sr	0.000000	4.117334	4.117334
Au	6.176001	2.058667	2.058667
O	4.117334	2.058667	2.058667
O	6.176001	0.000000	2.058667
O	6.176001	2.058667	0.000000
Sr	4.117334	0.000000	0.000000
Au	6.176001	2.058667	6.176001
O	4.117334	2.058667	6.176001
O	6.176001	0.000000	6.176001
O	6.176001	2.058667	4.117334
Sr	4.117334	0.000000	4.117334
Au	6.176001	6.176001	2.058667
O	4.117334	6.176001	2.058667
O	6.176001	4.117334	2.058667
O	6.176001	6.176001	0.000000
Sr	4.117334	4.117334	0.000000
Au	6.176001	6.176001	6.176001
O	4.117334	6.176001	6.176001
O	6.176001	4.117334	6.176001
O	6.176001	6.176001	4.117334
Sr	4.117334	4.117334	4.117334
