112

Ge	0.000000	0.000000	0.000000
Ge	2.109546	-2.109594	-2.109594
O	3.151413	-1.067308	-1.067308
O	-1.067679	1.067308	-3.151880
O	1.067679	-1.067308	-3.151880
O	1.041867	1.042286	-1.042286
O	5.286770	1.067308	-1.067308
O	1.041867	3.176902	-3.176902
O	3.177225	3.176902	-1.042286
O	3.177225	1.042286	-3.176902
Zn	-1.054773	-1.054797	-3.164391
Zn	3.164319	1.054797	-1.054797
Zn	5.273864	-1.054797	-1.054797
Zn	1.054773	1.054797	-3.164391
Ge	4.219091	4.219188	0.000000
Ge	6.328637	2.109594	-2.109594
O	7.370504	3.151880	-1.067308
O	3.151413	5.286496	-3.151880
O	5.286770	3.151880	-3.151880
O	5.260958	5.261474	-1.042286
O	9.505862	5.286496	-1.067308
O	5.260958	7.396090	-3.176902
O	7.396316	7.396090	-1.042286
O	7.396316	5.261474	-3.176902
Zn	3.164319	3.164391	-3.164391
Zn	7.383410	5.273985	-1.054797
Zn	9.492956	3.164391	-1.054797
Zn	5.273864	5.273985	-3.164391
Ge	-4.219091	0.000000	-4.219188
Ge	-2.109546	-2.109594	-6.328782
O	-1.067679	-1.067308	-5.286496
O	-5.286770	1.067308	-7.371068
O	-3.151413	-1.067308	-7.371068
O	-3.177225	1.042286	-5.261474
O	1.067679	1.067308	-5.286496
O	-3.177225	3.176902	-7.396090
O	-1.041867	3.176902	-5.261474
O	-1.041867	1.042286	-7.396090
Zn	-5.273864	-1.054797	-7.383579
Zn	-1.054773	1.054797	-5.273985
Zn	1.054773	-1.054797	-5.273985
Zn	-3.164319	1.054797	-7.383579
Ge	0.000000	4.219188	-4.219188
Ge	2.109546	2.109594	-6.328782
O	3.151413	3.151880	-5.286496
O	-1.067679	5.286496	-7.371068
O	1.067679	3.151880	-7.371068
O	1.041867	5.261474	-5.261474
O	5.286770	5.286496	-5.286496
O	1.041867	7.396090	-7.396090
O	3.177225	7.396090	-5.261474
O	3.177225	5.261474	-7.396090
Zn	-1.054773	3.164391	-7.383579
Zn	3.164319	5.273985	-5.273985
Zn	5.273864	3.164391	-5.273985
Zn	1.054773	5.273985	-7.383579
Ge	4.219091	-4.219188	0.000000
Ge	6.328637	-6.328782	-2.109594
O	7.370504	-5.286496	-1.067308
O	3.151413	-3.151880	-3.151880
O	5.286770	-5.286496	-3.151880
O	5.260958	-3.176902	-1.042286
O	9.505862	-3.151880	-1.067308
O	5.260958	-1.042286	-3.176902
O	7.396316	-1.042286	-1.042286
O	7.396316	-3.176902	-3.176902
Zn	3.164319	-5.273985	-3.164391
Zn	7.383410	-3.164391	-1.054797
Zn	9.492956	-5.273985	-1.054797
Zn	5.273864	-3.164391	-3.164391
Ge	8.438183	0.000000	0.000000
Ge	10.547729	-2.109594	-2.109594
O	11.589595	-1.067308	-1.067308
O	7.370504	1.067308	-3.151880
O	9.505862	-1.067308	-3.151880
O	9.480050	1.042286	-1.042286
O	13.724953	1.067308	-1.067308
O	9.480050	3.176902	-3.176902
O	11.615408	3.176902	-1.042286
O	11.615408	1.042286	-3.176902
Zn	7.383410	-1.054797	-3.164391
Zn	11.602502	1.054797	-1.054797
Zn	13.712047	-1.054797	-1.054797
Zn	9.492956	1.054797	-3.164391
Ge	0.000000	-4.219188	-4.219188
Ge	2.109546	-6.328782	-6.328782
O	3.151413	-5.286496	-5.286496
O	-1.067679	-3.151880	-7.371068
O	1.067679	-5.286496	-7.371068
O	1.041867	-3.176902	-5.261474
O	5.286770	-3.151880	-5.286496
O	1.041867	-1.042286	-7.396090
O	3.177225	-1.042286	-5.261474
O	3.177225	-3.176902	-7.396090
Zn	-1.054773	-5.273985	-7.383579
Zn	3.164319	-3.164391	-5.273985
Zn	5.273864	-5.273985	-5.273985
Zn	1.054773	-3.164391	-7.383579
Ge	4.219091	0.000000	-4.219188
Ge	6.328637	-2.109594	-6.328782
O	7.370504	-1.067308	-5.286496
O	3.151413	1.067308	-7.371068
O	5.286770	-1.067308	-7.371068
O	5.260958	1.042286	-5.261474
O	9.505862	1.067308	-5.286496
O	5.260958	3.176902	-7.396090
O	7.396316	3.176902	-5.261474
O	7.396316	1.042286	-7.396090
Zn	3.164319	-1.054797	-7.383579
Zn	7.383410	1.054797	-5.273985
Zn	9.492956	-1.054797	-5.273985
Zn	5.273864	1.054797	-7.383579
