40

O	0.000000	1.981079	1.981079
O	1.981079	0.000000	1.981079
O	1.981079	1.981079	0.000000
Si	0.000000	0.000000	0.000000
W	1.981079	1.981079	1.981079
O	0.000000	1.981079	5.943238
O	1.981079	0.000000	5.943238
O	1.981079	1.981079	3.962159
Si	0.000000	0.000000	3.962159
W	1.981079	1.981079	5.943238
O	0.000000	5.943238	1.981079
O	1.981079	3.962159	1.981079
O	1.981079	5.943238	0.000000
Si	0.000000	3.962159	0.000000
W	1.981079	5.943238	1.981079
O	0.000000	5.943238	5.943238
O	1.981079	3.962159	5.943238
O	1.981079	5.943238	3.962159
Si	0.000000	3.962159	3.962159
W	1.981079	5.943238	5.943238
O	3.962159	1.981079	1.981079
O	5.943238	0.000000	1.981079
O	5.943238	1.981079	0.000000
Si	3.962159	0.000000	0.000000
W	5.943238	1.981079	1.981079
O	3.962159	1.981079	5.943238
O	5.943238	0.000000	5.943238
O	5.943238	1.981079	3.962159
Si	3.962159	0.000000	3.962159
W	5.943238	1.981079	5.943238
O	3.962159	5.943238	1.981079
O	5.943238	3.962159	1.981079
O	5.943238	5.943238	0.000000
Si	3.962159	3.962159	0.000000
W	5.943238	5.943238	1.981079
O	3.962159	5.943238	5.943238
O	5.943238	3.962159	5.943238
O	5.943238	5.943238	3.962159
Si	3.962159	3.962159	3.962159
W	5.943238	5.943238	5.943238
