40

Be	0.000000	0.000000	0.000000
Ca	2.143440	2.143440	2.143440
O	0.000000	2.143440	2.143440
O	2.143440	0.000000	2.143440
O	2.143440	2.143440	0.000000
Be	0.000000	0.000000	4.286880
Ca	2.143440	2.143440	6.430319
O	0.000000	2.143440	6.430319
O	2.143440	0.000000	6.430319
O	2.143440	2.143440	4.286880
Be	0.000000	4.286880	0.000000
Ca	2.143440	6.430319	2.143440
O	0.000000	6.430319	2.143440
O	2.143440	4.286880	2.143440
O	2.143440	6.430319	0.000000
Be	0.000000	4.286880	4.286880
Ca	2.143440	6.430319	6.430319
O	0.000000	6.430319	6.430319
O	2.143440	4.286880	6.430319
O	2.143440	6.430319	4.286880
Be	4.286880	0.000000	0.000000
Ca	6.430319	2.143440	2.143440
O	4.286880	2.143440	2.143440
O	6.430319	0.000000	2.143440
O	6.430319	2.143440	0.000000
Be	4.286880	0.000000	4.286880
Ca	6.430319	2.143440	6.430319
O	4.286880	2.143440	6.430319
O	6.430319	0.000000	6.430319
O	6.430319	2.143440	4.286880
Be	4.286880	4.286880	0.000000
Ca	6.430319	6.430319	2.143440
O	4.286880	6.430319	2.143440
O	6.430319	4.286880	2.143440
O	6.430319	6.430319	0.000000
Be	4.286880	4.286880	4.286880
Ca	6.430319	6.430319	6.430319
O	4.286880	6.430319	6.430319
O	6.430319	4.286880	6.430319
O	6.430319	6.430319	4.286880
