40

Be	1.807228	1.807228	1.807228
Ca	0.000000	0.000000	0.000000
O	0.000000	1.807228	1.807228
O	1.807228	0.000000	1.807228
O	1.807228	1.807228	0.000000
Be	1.807228	1.807228	5.421685
Ca	0.000000	0.000000	3.614456
O	0.000000	1.807228	5.421685
O	1.807228	0.000000	5.421685
O	1.807228	1.807228	3.614456
Be	1.807228	5.421685	1.807228
Ca	0.000000	3.614456	0.000000
O	0.000000	5.421685	1.807228
O	1.807228	3.614456	1.807228
O	1.807228	5.421685	0.000000
Be	1.807228	5.421685	5.421685
Ca	0.000000	3.614456	3.614456
O	0.000000	5.421685	5.421685
O	1.807228	3.614456	5.421685
O	1.807228	5.421685	3.614456
Be	5.421685	1.807228	1.807228
Ca	3.614456	0.000000	0.000000
O	3.614456	1.807228	1.807228
O	5.421685	0.000000	1.807228
O	5.421685	1.807228	0.000000
Be	5.421685	1.807228	5.421685
Ca	3.614456	0.000000	3.614456
O	3.614456	1.807228	5.421685
O	5.421685	0.000000	5.421685
O	5.421685	1.807228	3.614456
Be	5.421685	5.421685	1.807228
Ca	3.614456	3.614456	0.000000
O	3.614456	5.421685	1.807228
O	5.421685	3.614456	1.807228
O	5.421685	5.421685	0.000000
Be	5.421685	5.421685	5.421685
Ca	3.614456	3.614456	3.614456
O	3.614456	5.421685	5.421685
O	5.421685	3.614456	5.421685
O	5.421685	5.421685	3.614456
