112

As	0.000000	0.000000	0.000000
As	2.107738	-2.107956	-2.107956
Mg	-1.053869	-1.053978	-3.161924
Mg	1.053869	1.053978	-3.161924
Mg	5.269345	-1.053978	-1.053978
Mg	3.161607	1.053978	-1.053978
O	3.197051	-1.018245	-1.018245
O	-1.018425	1.018245	-3.197667
O	1.018425	-1.018245	-3.197667
O	1.089313	1.089711	-1.089711
O	5.233891	1.018245	-1.018245
O	1.089313	3.126192	-3.126192
O	3.126153	3.126192	-1.089711
O	3.126153	1.089711	-3.126192
As	4.215472	4.215905	0.000000
As	6.323210	2.107949	-2.107956
Mg	3.161603	3.161927	-3.161924
Mg	5.269341	5.269883	-3.161924
Mg	9.484817	3.161927	-1.053978
Mg	7.377079	5.269883	-1.053978
O	7.412523	3.197660	-1.018245
O	3.197047	5.234151	-3.197667
O	5.233897	3.197660	-3.197667
O	5.304785	5.305616	-1.089711
O	9.449363	5.234151	-1.018245
O	5.304785	7.342097	-3.126192
O	7.341625	7.342097	-1.089711
O	7.341625	5.305616	-3.126192
As	-4.215472	0.000000	-4.215905
As	-2.107734	-2.107956	-6.323861
Mg	-5.269341	-1.053978	-7.377829
Mg	-3.161603	1.053978	-7.377829
Mg	1.053873	-1.053978	-5.269883
Mg	-1.053865	1.053978	-5.269883
O	-1.018421	-1.018245	-5.234151
O	-5.233897	1.018245	-7.413572
O	-3.197047	-1.018245	-7.413572
O	-3.126159	1.089711	-5.305616
O	1.018419	1.018245	-5.234151
O	-3.126159	3.126192	-7.342097
O	-1.089319	3.126192	-5.305616
O	-1.089319	1.089711	-7.342097
As	0.000000	4.215905	-4.215905
As	2.107738	2.107949	-6.323861
Mg	-1.053869	3.161927	-7.377829
Mg	1.053869	5.269883	-7.377829
Mg	5.269345	3.161927	-5.269883
Mg	3.161607	5.269883	-5.269883
O	3.197051	3.197660	-5.234151
O	-1.018425	5.234151	-7.413572
O	1.018425	3.197660	-7.413572
O	1.089313	5.305616	-5.305616
O	5.233891	5.234151	-5.234151
O	1.089313	7.342097	-7.342097
O	3.126153	7.342097	-5.305616
O	3.126153	5.305616	-7.342097
As	4.215472	-4.215905	0.000000
As	6.323210	-6.323861	-2.107956
Mg	3.161603	-5.269883	-3.161924
Mg	5.269341	-3.161927	-3.161924
Mg	9.484817	-5.269883	-1.053978
Mg	7.377079	-3.161927	-1.053978
O	7.412523	-5.234151	-1.018245
O	3.197047	-3.197660	-3.197667
O	5.233897	-5.234151	-3.197667
O	5.304785	-3.126194	-1.089711
O	9.449363	-3.197660	-1.018245
O	5.304785	-1.089713	-3.126192
O	7.341625	-1.089713	-1.089711
O	7.341625	-3.126194	-3.126192
As	8.430944	0.000000	0.000000
As	10.538682	-2.107956	-2.107956
Mg	7.377075	-1.053978	-3.161924
Mg	9.484813	1.053978	-3.161924
Mg	13.700289	-1.053978	-1.053978
Mg	11.592551	1.053978	-1.053978
O	11.627995	-1.018245	-1.018245
O	7.412519	1.018245	-3.197667
O	9.449369	-1.018245	-3.197667
O	9.520257	1.089711	-1.089711
O	13.664835	1.018245	-1.018245
O	9.520257	3.126192	-3.126192
O	11.557097	3.126192	-1.089711
O	11.557097	1.089711	-3.126192
As	0.000000	-4.215905	-4.215905
As	2.107738	-6.323861	-6.323861
Mg	-1.053869	-5.269883	-7.377829
Mg	1.053869	-3.161927	-7.377829
Mg	5.269345	-5.269883	-5.269883
Mg	3.161607	-3.161927	-5.269883
O	3.197051	-5.234151	-5.234151
O	-1.018425	-3.197660	-7.413572
O	1.018425	-5.234151	-7.413572
O	1.089313	-3.126194	-5.305616
O	5.233891	-3.197660	-5.234151
O	1.089313	-1.089713	-7.342097
O	3.126153	-1.089713	-5.305616
O	3.126153	-3.126194	-7.342097
As	4.215472	0.000000	-4.215905
As	6.323210	-2.107956	-6.323861
Mg	3.161603	-1.053978	-7.377829
Mg	5.269341	1.053978	-7.377829
Mg	9.484817	-1.053978	-5.269883
Mg	7.377079	1.053978	-5.269883
O	7.412523	-1.018245	-5.234151
O	3.197047	1.018245	-7.413572
O	5.233897	-1.018245	-7.413572
O	5.304785	1.089711	-5.305616
O	9.449363	1.018245	-5.234151
O	5.304785	3.126192	-7.342097
O	7.341625	3.126192	-5.305616
O	7.341625	1.089711	-7.342097
