40

Ag	0.000000	0.000000	0.000000
Na	2.028301	2.028301	2.028301
O	2.028301	2.028301	0.000000
O	2.028301	0.000000	2.028301
O	0.000000	2.028301	2.028301
Ag	0.000000	0.000000	4.056607
Na	2.028301	2.028301	6.084907
O	2.028301	2.028301	4.056607
O	2.028301	0.000000	6.084907
O	0.000000	2.028301	6.084907
Ag	0.000000	4.056607	0.000000
Na	2.028301	6.084907	2.028301
O	2.028301	6.084907	0.000000
O	2.028301	4.056607	2.028301
O	0.000000	6.084907	2.028301
Ag	0.000000	4.056607	4.056607
Na	2.028301	6.084907	6.084907
O	2.028301	6.084907	4.056607
O	2.028301	4.056607	6.084907
O	0.000000	6.084907	6.084907
Ag	4.056607	0.000000	0.000000
Na	6.084907	2.028301	2.028301
O	6.084907	2.028301	0.000000
O	6.084907	0.000000	2.028301
O	4.056607	2.028301	2.028301
Ag	4.056607	0.000000	4.056607
Na	6.084907	2.028301	6.084907
O	6.084907	2.028301	4.056607
O	6.084907	0.000000	6.084907
O	4.056607	2.028301	6.084907
Ag	4.056607	4.056607	0.000000
Na	6.084907	6.084907	2.028301
O	6.084907	6.084907	0.000000
O	6.084907	4.056607	2.028301
O	4.056607	6.084907	2.028301
Ag	4.056607	4.056607	4.056607
Na	6.084907	6.084907	6.084907
O	6.084907	6.084907	4.056607
O	6.084907	4.056607	6.084907
O	4.056607	6.084907	6.084907
