40

Be	1.747826	1.747826	1.747826
Ir	0.000000	0.000000	0.000000
O	0.000000	1.747826	1.747826
O	1.747826	0.000000	1.747826
O	1.747826	1.747826	0.000000
Be	1.747826	1.747826	5.243479
Ir	0.000000	0.000000	3.495653
O	0.000000	1.747826	5.243479
O	1.747826	0.000000	5.243479
O	1.747826	1.747826	3.495653
Be	1.747826	5.243479	1.747826
Ir	0.000000	3.495653	0.000000
O	0.000000	5.243479	1.747826
O	1.747826	3.495653	1.747826
O	1.747826	5.243479	0.000000
Be	1.747826	5.243479	5.243479
Ir	0.000000	3.495653	3.495653
O	0.000000	5.243479	5.243479
O	1.747826	3.495653	5.243479
O	1.747826	5.243479	3.495653
Be	5.243479	1.747826	1.747826
Ir	3.495653	0.000000	0.000000
O	3.495653	1.747826	1.747826
O	5.243479	0.000000	1.747826
O	5.243479	1.747826	0.000000
Be	5.243479	1.747826	5.243479
Ir	3.495653	0.000000	3.495653
O	3.495653	1.747826	5.243479
O	5.243479	0.000000	5.243479
O	5.243479	1.747826	3.495653
Be	5.243479	5.243479	1.747826
Ir	3.495653	3.495653	0.000000
O	3.495653	5.243479	1.747826
O	5.243479	3.495653	1.747826
O	5.243479	5.243479	0.000000
Be	5.243479	5.243479	5.243479
Ir	3.495653	3.495653	3.495653
O	3.495653	5.243479	5.243479
O	5.243479	3.495653	5.243479
O	5.243479	5.243479	3.495653
