112

Ho	0.000000	0.000000	0.000000
Ho	2.472880	-2.473298	-2.473298
O	1.235538	1.236330	-1.236330
O	3.708418	-1.236968	-1.236968
O	-1.237332	1.236968	-3.709628
O	1.237332	-1.236968	-3.709628
O	1.235538	3.710266	-3.710266
O	3.710212	3.710266	-1.236330
O	3.710212	1.236330	-3.710266
O	6.183092	1.236968	-1.236968
U	-1.236435	-1.236649	-3.709947
U	1.236435	1.236649	-3.709947
U	3.709315	1.236649	-1.236649
U	6.182195	-1.236649	-1.236649
Ho	4.945755	4.946592	0.000000
Ho	7.418635	2.473294	-2.473298
O	6.181293	6.182922	-1.236330
O	8.654173	3.709624	-1.236968
O	3.708423	6.183560	-3.709628
O	6.183086	3.709624	-3.709628
O	6.181293	8.656858	-3.710266
O	8.655966	8.656858	-1.236330
O	8.655966	6.182922	-3.710266
O	11.128846	6.183560	-1.236968
U	3.709320	3.709943	-3.709947
U	6.182190	6.183241	-3.709947
U	8.655070	6.183241	-1.236649
U	11.127950	3.709943	-1.236649
Ho	-4.945755	0.000000	-4.946592
Ho	-2.472875	-2.473298	-7.419890
O	-3.710216	1.236330	-6.182922
O	-1.237336	-1.236968	-6.183560
O	-6.183086	1.236968	-8.656220
O	-3.708423	-1.236968	-8.656220
O	-3.710216	3.710266	-8.656858
O	-1.235543	3.710266	-6.182922
O	-1.235543	1.236330	-8.656858
O	1.237337	1.236968	-6.183560
U	-6.182190	-1.236649	-8.656539
U	-3.709320	1.236649	-8.656539
U	-1.236440	1.236649	-6.183241
U	1.236440	-1.236649	-6.183241
Ho	0.000000	4.946592	-4.946592
Ho	2.472880	2.473294	-7.419890
O	1.235538	6.182922	-6.182922
O	3.708418	3.709624	-6.183560
O	-1.237332	6.183560	-8.656220
O	1.237332	3.709624	-8.656220
O	1.235538	8.656858	-8.656858
O	3.710212	8.656858	-6.182922
O	3.710212	6.182922	-8.656858
O	6.183092	6.183560	-6.183560
U	-1.236435	3.709943	-8.656539
U	1.236435	6.183241	-8.656539
U	3.709315	6.183241	-6.183241
U	6.182195	3.709943	-6.183241
Ho	4.945755	-4.946592	0.000000
Ho	7.418635	-7.419890	-2.473298
O	6.181293	-3.710262	-1.236330
O	8.654173	-6.183560	-1.236968
O	3.708423	-3.709624	-3.709628
O	6.183086	-6.183560	-3.709628
O	6.181293	-1.236326	-3.710266
O	8.655966	-1.236326	-1.236330
O	8.655966	-3.710262	-3.710266
O	11.128846	-3.709624	-1.236968
U	3.709320	-6.183241	-3.709947
U	6.182190	-3.709943	-3.709947
U	8.655070	-3.709943	-1.236649
U	11.127950	-6.183241	-1.236649
Ho	9.891509	0.000000	0.000000
Ho	12.364389	-2.473298	-2.473298
O	11.127048	1.236330	-1.236330
O	13.599928	-1.236968	-1.236968
O	8.654178	1.236968	-3.709628
O	11.128841	-1.236968	-3.709628
O	11.127048	3.710266	-3.710266
O	13.601721	3.710266	-1.236330
O	13.601721	1.236330	-3.710266
O	16.074601	1.236968	-1.236968
U	8.655074	-1.236649	-3.709947
U	11.127944	1.236649	-3.709947
U	13.600824	1.236649	-1.236649
U	16.073704	-1.236649	-1.236649
Ho	0.000000	-4.946592	-4.946592
Ho	2.472880	-7.419890	-7.419890
O	1.235538	-3.710262	-6.182922
O	3.708418	-6.183560	-6.183560
O	-1.237332	-3.709624	-8.656220
O	1.237332	-6.183560	-8.656220
O	1.235538	-1.236326	-8.656858
O	3.710212	-1.236326	-6.182922
O	3.710212	-3.710262	-8.656858
O	6.183092	-3.709624	-6.183560
U	-1.236435	-6.183241	-8.656539
U	1.236435	-3.709943	-8.656539
U	3.709315	-3.709943	-6.183241
U	6.182195	-6.183241	-6.183241
Ho	4.945755	0.000000	-4.946592
Ho	7.418635	-2.473298	-7.419890
O	6.181293	1.236330	-6.182922
O	8.654173	-1.236968	-6.183560
O	3.708423	1.236968	-8.656220
O	6.183086	-1.236968	-8.656220
O	6.181293	3.710266	-8.656858
O	8.655966	3.710266	-6.182922
O	8.655966	1.236330	-8.656858
O	11.128846	1.236968	-6.183560
U	3.709320	-1.236649	-8.656539
U	6.182190	1.236649	-8.656539
U	8.655070	1.236649	-6.183241
U	11.127950	-1.236649	-6.183241
