112

Be	0.000000	0.000000	0.000000
Be	2.216122	-2.216399	-2.216399
O	0.950693	0.950354	-0.950354
O	1.265419	-1.266045	-3.166753
O	3.166815	-1.266045	-1.266045
O	-1.265419	1.266045	-3.166753
O	3.481541	3.482444	-0.950354
O	3.481541	0.950354	-3.482444
O	0.950693	3.482444	-3.482444
O	5.697663	1.266045	-1.266045
Te	-1.108056	-1.108205	-3.324604
Te	5.540300	-1.108205	-1.108205
Te	1.108056	1.108205	-3.324604
Te	3.324178	1.108204	-1.108205
Be	4.432241	4.432802	0.000000
Be	6.648363	2.216402	-2.216399
O	5.382934	5.383155	-0.950354
O	5.697660	3.166756	-3.166753
O	7.599055	3.166756	-1.266045
O	3.166822	5.698847	-3.166753
O	7.913782	7.915246	-0.950354
O	7.913782	5.383155	-3.482444
O	5.382934	7.915246	-3.482444
O	10.129904	5.698847	-1.266045
Te	3.324185	3.324597	-3.324604
Te	9.972541	3.324597	-1.108205
Te	5.540297	5.541006	-3.324604
Te	7.756419	5.541006	-1.108205
Be	-4.432241	0.000000	-4.432802
Be	-2.216119	-2.216399	-6.649201
O	-3.481548	0.950354	-5.383155
O	-3.166822	-1.266045	-7.599554
O	-1.265426	-1.266045	-5.698847
O	-5.697660	1.266045	-7.599554
O	-0.950700	3.482444	-5.383155
O	-0.950700	0.950354	-7.915246
O	-3.481548	3.482444	-7.915246
O	1.265422	1.266045	-5.698847
Te	-5.540297	-1.108205	-7.757405
Te	1.108059	-1.108205	-5.541006
Te	-3.324185	1.108205	-7.757405
Te	-1.108063	1.108204	-5.541006
Be	0.000000	4.432802	-4.432802
Be	2.216122	2.216402	-6.649201
O	0.950693	5.383155	-5.383155
O	1.265419	3.166756	-7.599554
O	3.166815	3.166756	-5.698847
O	-1.265419	5.698847	-7.599554
O	3.481541	7.915246	-5.383155
O	3.481541	5.383155	-7.915246
O	0.950693	7.915246	-7.915246
O	5.697663	5.698847	-5.698847
Te	-1.108056	3.324597	-7.757405
Te	5.540300	3.324597	-5.541006
Te	1.108056	5.541006	-7.757405
Te	3.324178	5.541006	-5.541006
Be	4.432241	-4.432802	0.000000
Be	6.648363	-6.649201	-2.216399
O	5.382934	-3.482448	-0.950354
O	5.697660	-5.698847	-3.166753
O	7.599055	-5.698847	-1.266045
O	3.166822	-3.166756	-3.166753
O	7.913782	-0.950357	-0.950354
O	7.913782	-3.482448	-3.482444
O	5.382934	-0.950357	-3.482444
O	10.129904	-3.166756	-1.266045
Te	3.324185	-5.541006	-3.324604
Te	9.972541	-5.541006	-1.108205
Te	5.540297	-3.324597	-3.324604
Te	7.756419	-3.324597	-1.108205
Be	8.864482	0.000000	0.000000
Be	11.080604	-2.216399	-2.216399
O	9.815174	0.950354	-0.950354
O	10.129901	-1.266045	-3.166753
O	12.031296	-1.266045	-1.266045
O	7.599062	1.266045	-3.166753
O	12.346023	3.482444	-0.950354
O	12.346023	0.950354	-3.482444
O	9.815174	3.482444	-3.482444
O	14.562145	1.266045	-1.266045
Te	7.756426	-1.108205	-3.324604
Te	14.404781	-1.108205	-1.108205
Te	9.972538	1.108205	-3.324604
Te	12.188659	1.108204	-1.108205
Be	0.000000	-4.432802	-4.432802
Be	2.216122	-6.649201	-6.649201
O	0.950693	-3.482448	-5.383155
O	1.265419	-5.698847	-7.599554
O	3.166815	-5.698847	-5.698847
O	-1.265419	-3.166756	-7.599554
O	3.481541	-0.950357	-5.383155
O	3.481541	-3.482448	-7.915246
O	0.950693	-0.950357	-7.915246
O	5.697663	-3.166756	-5.698847
Te	-1.108056	-5.541006	-7.757405
Te	5.540300	-5.541006	-5.541006
Te	1.108056	-3.324597	-7.757405
Te	3.324178	-3.324597	-5.541006
Be	4.432241	0.000000	-4.432802
Be	6.648363	-2.216399	-6.649201
O	5.382934	0.950354	-5.383155
O	5.697660	-1.266045	-7.599554
O	7.599055	-1.266045	-5.698847
O	3.166822	1.266045	-7.599554
O	7.913782	3.482444	-5.383155
O	7.913782	0.950354	-7.915246
O	5.382934	3.482444	-7.915246
O	10.129904	1.266045	-5.698847
Te	3.324185	-1.108205	-7.757405
Te	9.972541	-1.108205	-5.541006
Te	5.540297	1.108205	-7.757405
Te	7.756419	1.108204	-5.541006
