96

O	3.557327	3.557327	0.000000
O	3.557327	0.000000	3.557327
O	0.000000	3.557327	3.557327
P	0.000000	0.000000	0.000000
Rb	1.868755	1.868755	1.868755
Rb	5.245888	1.868755	1.868755
Rb	1.868755	5.245888	1.868755
Rb	5.245888	5.245888	1.868755
Rb	1.868755	1.868755	5.245888
Rb	5.245888	1.868755	5.245888
Rb	1.868755	5.245888	5.245888
Rb	5.245888	5.245888	5.245888
O	3.557327	3.557327	7.114646
O	3.557327	0.000000	10.671972
O	0.000000	3.557327	10.671972
P	0.000000	0.000000	7.114646
Rb	1.868755	1.868755	8.983401
Rb	5.245888	1.868755	8.983401
Rb	1.868755	5.245888	8.983401
Rb	5.245888	5.245888	8.983401
Rb	1.868755	1.868755	12.360533
Rb	5.245888	1.868755	12.360533
Rb	1.868755	5.245888	12.360533
Rb	5.245888	5.245888	12.360533
O	3.557327	10.671972	0.000000
O	3.557327	7.114646	3.557327
O	0.000000	10.671972	3.557327
P	0.000000	7.114646	0.000000
Rb	1.868755	8.983401	1.868755
Rb	5.245888	8.983401	1.868755
Rb	1.868755	12.360533	1.868755
Rb	5.245888	12.360533	1.868755
Rb	1.868755	8.983401	5.245888
Rb	5.245888	8.983401	5.245888
Rb	1.868755	12.360533	5.245888
Rb	5.245888	12.360533	5.245888
O	3.557327	10.671972	7.114646
O	3.557327	7.114646	10.671972
O	0.000000	10.671972	10.671972
P	0.000000	7.114646	7.114646
Rb	1.868755	8.983401	8.983401
Rb	5.245888	8.983401	8.983401
Rb	1.868755	12.360533	8.983401
Rb	5.245888	12.360533	8.983401
Rb	1.868755	8.983401	12.360533
Rb	5.245888	8.983401	12.360533
Rb	1.868755	12.360533	12.360533
Rb	5.245888	12.360533	12.360533
O	10.671972	3.557327	0.000000
O	10.671972	0.000000	3.557327
O	7.114646	3.557327	3.557327
P	7.114646	0.000000	0.000000
Rb	8.983401	1.868755	1.868755
Rb	12.360533	1.868755	1.868755
Rb	8.983401	5.245888	1.868755
Rb	12.360533	5.245888	1.868755
Rb	8.983401	1.868755	5.245888
Rb	12.360533	1.868755	5.245888
Rb	8.983401	5.245888	5.245888
Rb	12.360533	5.245888	5.245888
O	10.671972	3.557327	7.114646
O	10.671972	0.000000	10.671972
O	7.114646	3.557327	10.671972
P	7.114646	0.000000	7.114646
Rb	8.983401	1.868755	8.983401
Rb	12.360533	1.868755	8.983401
Rb	8.983401	5.245888	8.983401
Rb	12.360533	5.245888	8.983401
Rb	8.983401	1.868755	12.360533
Rb	12.360533	1.868755	12.360533
Rb	8.983401	5.245888	12.360533
Rb	12.360533	5.245888	12.360533
O	10.671972	10.671972	0.000000
O	10.671972	7.114646	3.557327
O	7.114646	10.671972	3.557327
P	7.114646	7.114646	0.000000
Rb	8.983401	8.983401	1.868755
Rb	12.360533	8.983401	1.868755
Rb	8.983401	12.360533	1.868755
Rb	12.360533	12.360533	1.868755
Rb	8.983401	8.983401	5.245888
Rb	12.360533	8.983401	5.245888
Rb	8.983401	12.360533	5.245888
Rb	12.360533	12.360533	5.245888
O	10.671972	10.671972	7.114646
O	10.671972	7.114646	10.671972
O	7.114646	10.671972	10.671972
P	7.114646	7.114646	7.114646
Rb	8.983401	8.983401	8.983401
Rb	12.360533	8.983401	8.983401
Rb	8.983401	12.360533	8.983401
Rb	12.360533	12.360533	8.983401
Rb	8.983401	8.983401	12.360533
Rb	12.360533	8.983401	12.360533
Rb	8.983401	12.360533	12.360533
Rb	12.360533	12.360533	12.360533
