112

Cd	0.000000	0.000000	0.000000
Cd	2.405059	-2.405741	-2.405741
O	3.722444	-1.087479	-1.087479
O	-1.087673	1.087479	-3.724003
O	1.087673	-1.087479	-3.724003
O	1.317385	1.318262	-1.318262
O	5.897791	1.087479	-1.087479
O	1.317385	3.493221	-3.493221
O	3.492732	3.493221	-1.318262
O	3.492732	1.318262	-3.493221
Tb	-1.202529	-1.202871	-3.608612
Tb	3.607588	1.202871	-1.202871
Tb	6.012646	-1.202871	-1.202871
Tb	1.202529	1.202871	-3.608612
Cd	4.810117	4.811483	0.000000
Cd	7.215176	2.405741	-2.405741
O	8.532561	3.724003	-1.087479
O	3.722444	5.898962	-3.724003
O	5.897791	3.724003	-3.724003
O	6.127502	6.129745	-1.318262
O	10.707908	5.898962	-1.087479
O	6.127502	8.304703	-3.493221
O	8.302849	8.304703	-1.318262
O	8.302849	6.129745	-3.493221
Tb	3.607588	3.608612	-3.608612
Tb	8.417705	6.014353	-1.202871
Tb	10.822763	3.608612	-1.202871
Tb	6.012646	6.014353	-3.608612
Cd	-4.810117	0.000000	-4.811483
Cd	-2.405059	-2.405741	-7.217224
O	-1.087673	-1.087479	-5.898962
O	-5.897791	1.087479	-8.535486
O	-3.722444	-1.087479	-8.535486
O	-3.492732	1.318262	-6.129745
O	1.087673	1.087479	-5.898962
O	-3.492732	3.493221	-8.304703
O	-1.317385	3.493221	-6.129745
O	-1.317385	1.318262	-8.304703
Tb	-6.012646	-1.202871	-8.420095
Tb	-1.202529	1.202871	-6.014353
Tb	1.202529	-1.202871	-6.014353
Tb	-3.607588	1.202871	-8.420095
Cd	0.000000	4.811483	-4.811483
Cd	2.405059	2.405741	-7.217224
O	3.722444	3.724003	-5.898962
O	-1.087673	5.898962	-8.535486
O	1.087673	3.724003	-8.535486
O	1.317385	6.129745	-6.129745
O	5.897791	5.898962	-5.898962
O	1.317385	8.304703	-8.304703
O	3.492732	8.304703	-6.129745
O	3.492732	6.129745	-8.304703
Tb	-1.202529	3.608612	-8.420095
Tb	3.607588	6.014353	-6.014353
Tb	6.012646	3.608612	-6.014353
Tb	1.202529	6.014353	-8.420095
Cd	4.810117	-4.811483	0.000000
Cd	7.215176	-7.217224	-2.405741
O	8.532561	-5.898962	-1.087479
O	3.722444	-3.724003	-3.724003
O	5.897791	-5.898962	-3.724003
O	6.127502	-3.493221	-1.318262
O	10.707908	-3.724003	-1.087479
O	6.127502	-1.318262	-3.493221
O	8.302849	-1.318262	-1.318262
O	8.302849	-3.493221	-3.493221
Tb	3.607588	-6.014353	-3.608612
Tb	8.417705	-3.608612	-1.202871
Tb	10.822763	-6.014353	-1.202871
Tb	6.012646	-3.608612	-3.608612
Cd	9.620234	0.000000	0.000000
Cd	12.025293	-2.405741	-2.405741
O	13.342678	-1.087479	-1.087479
O	8.532561	1.087479	-3.724003
O	10.707908	-1.087479	-3.724003
O	10.937619	1.318262	-1.318262
O	15.518025	1.087479	-1.087479
O	10.937619	3.493221	-3.493221
O	13.112966	3.493221	-1.318262
O	13.112966	1.318262	-3.493221
Tb	8.417705	-1.202871	-3.608612
Tb	13.227822	1.202871	-1.202871
Tb	15.632881	-1.202871	-1.202871
Tb	10.822763	1.202871	-3.608612
Cd	0.000000	-4.811483	-4.811483
Cd	2.405059	-7.217224	-7.217224
O	3.722444	-5.898962	-5.898962
O	-1.087673	-3.724003	-8.535486
O	1.087673	-5.898962	-8.535486
O	1.317385	-3.493221	-6.129745
O	5.897791	-3.724003	-5.898962
O	1.317385	-1.318262	-8.304703
O	3.492732	-1.318262	-6.129745
O	3.492732	-3.493221	-8.304703
Tb	-1.202529	-6.014353	-8.420095
Tb	3.607588	-3.608612	-6.014353
Tb	6.012646	-6.014353	-6.014353
Tb	1.202529	-3.608612	-8.420095
Cd	4.810117	0.000000	-4.811483
Cd	7.215176	-2.405741	-7.217224
O	8.532561	-1.087479	-5.898962
O	3.722444	1.087479	-8.535486
O	5.897791	-1.087479	-8.535486
O	6.127502	1.318262	-6.129745
O	10.707908	1.087479	-5.898962
O	6.127502	3.493221	-8.304703
O	8.302849	3.493221	-6.129745
O	8.302849	1.318262	-8.304703
Tb	3.607588	-1.202871	-8.420095
Tb	8.417705	1.202871	-6.014353
Tb	10.822763	-1.202871	-6.014353
Tb	6.012646	1.202871	-8.420095
