40

Br	1.984650	1.984650	1.984650
Li	1.984650	0.000000	0.000000
Li	0.000000	1.984650	0.000000
Li	0.000000	0.000000	1.984650
O	0.000000	0.000000	0.000000
Br	1.984650	1.984650	5.953953
Li	1.984650	0.000000	3.969303
Li	0.000000	1.984650	3.969303
Li	0.000000	0.000000	5.953953
O	0.000000	0.000000	3.969303
Br	1.984650	5.953953	1.984650
Li	1.984650	3.969303	0.000000
Li	0.000000	5.953953	0.000000
Li	0.000000	3.969303	1.984650
O	0.000000	3.969303	0.000000
Br	1.984650	5.953953	5.953953
Li	1.984650	3.969303	3.969303
Li	0.000000	5.953953	3.969303
Li	0.000000	3.969303	5.953953
O	0.000000	3.969303	3.969303
Br	5.953953	1.984650	1.984650
Li	5.953953	0.000000	0.000000
Li	3.969303	1.984650	0.000000
Li	3.969303	0.000000	1.984650
O	3.969303	0.000000	0.000000
Br	5.953953	1.984650	5.953953
Li	5.953953	0.000000	3.969303
Li	3.969303	1.984650	3.969303
Li	3.969303	0.000000	5.953953
O	3.969303	0.000000	3.969303
Br	5.953953	5.953953	1.984650
Li	5.953953	3.969303	0.000000
Li	3.969303	5.953953	0.000000
Li	3.969303	3.969303	1.984650
O	3.969303	3.969303	0.000000
Br	5.953953	5.953953	5.953953
Li	5.953953	3.969303	3.969303
Li	3.969303	5.953953	3.969303
Li	3.969303	3.969303	5.953953
O	3.969303	3.969303	3.969303
