112

Gd	0.000000	0.000000	0.000000
Gd	2.251151	-2.251588	-2.251588
O	3.521290	-0.980494	-0.980494
O	-0.981011	0.980494	-3.522681
O	0.981012	-0.980494	-3.522681
O	1.270139	1.271093	-1.271093
O	5.483313	0.980494	-0.980494
O	1.270139	3.232082	-3.232082
O	3.232162	3.232082	-1.271093
O	3.232162	1.271093	-3.232082
Rh	-1.125575	-1.125794	-3.377381
Rh	3.376726	1.125794	-1.125794
Rh	5.627877	-1.125794	-1.125794
Rh	1.125575	1.125794	-3.377381
Gd	4.502302	4.503175	0.000000
Gd	6.753452	2.251588	-2.251588
O	8.023592	3.522681	-0.980494
O	3.521290	5.483669	-3.522681
O	5.483313	3.522681	-3.522681
O	5.772441	5.774269	-1.271093
O	9.985615	5.483669	-0.980494
O	5.772441	7.735257	-3.232082
O	7.734464	7.735257	-1.271093
O	7.734464	5.774269	-3.232082
Rh	3.376726	3.377381	-3.377381
Rh	7.879028	5.628969	-1.125794
Rh	10.130179	3.377381	-1.125794
Rh	5.627877	5.628969	-3.377381
Gd	-4.502302	0.000000	-4.503175
Gd	-2.251151	-2.251588	-6.754763
O	-0.981012	-0.980494	-5.483669
O	-5.483313	0.980494	-8.025856
O	-3.521290	-0.980494	-8.025856
O	-3.232162	1.271093	-5.774269
O	0.981011	0.980494	-5.483669
O	-3.232162	3.232082	-7.735257
O	-1.270139	3.232082	-5.774269
O	-1.270139	1.271093	-7.735257
Rh	-5.627877	-1.125794	-7.880557
Rh	-1.125575	1.125794	-5.628969
Rh	1.125575	-1.125794	-5.628969
Rh	-3.376726	1.125794	-7.880557
Gd	0.000000	4.503175	-4.503175
Gd	2.251151	2.251588	-6.754763
O	3.521290	3.522681	-5.483669
O	-0.981011	5.483669	-8.025856
O	0.981012	3.522681	-8.025856
O	1.270139	5.774269	-5.774269
O	5.483313	5.483669	-5.483669
O	1.270139	7.735257	-7.735257
O	3.232162	7.735257	-5.774269
O	3.232162	5.774269	-7.735257
Rh	-1.125575	3.377381	-7.880557
Rh	3.376726	5.628969	-5.628969
Rh	5.627877	3.377381	-5.628969
Rh	1.125575	5.628969	-7.880557
Gd	4.502302	-4.503175	0.000000
Gd	6.753452	-6.754763	-2.251588
O	8.023592	-5.483669	-0.980494
O	3.521290	-3.522681	-3.522681
O	5.483313	-5.483669	-3.522681
O	5.772441	-3.232082	-1.271093
O	9.985615	-3.522681	-0.980494
O	5.772441	-1.271093	-3.232082
O	7.734464	-1.271093	-1.271093
O	7.734464	-3.232082	-3.232082
Rh	3.376726	-5.628969	-3.377381
Rh	7.879028	-3.377381	-1.125794
Rh	10.130179	-5.628969	-1.125794
Rh	5.627877	-3.377381	-3.377381
Gd	9.004603	0.000000	0.000000
Gd	11.255754	-2.251588	-2.251588
O	12.525893	-0.980494	-0.980494
O	8.023592	0.980494	-3.522681
O	9.985615	-0.980494	-3.522681
O	10.274742	1.271093	-1.271093
O	14.487916	0.980494	-0.980494
O	10.274742	3.232082	-3.232082
O	12.236765	3.232082	-1.271093
O	12.236765	1.271093	-3.232082
Rh	7.879028	-1.125794	-3.377381
Rh	12.381329	1.125794	-1.125794
Rh	14.632480	-1.125794	-1.125794
Rh	10.130179	1.125794	-3.377381
Gd	0.000000	-4.503175	-4.503175
Gd	2.251151	-6.754763	-6.754763
O	3.521290	-5.483669	-5.483669
O	-0.981011	-3.522681	-8.025856
O	0.981012	-5.483669	-8.025856
O	1.270139	-3.232082	-5.774269
O	5.483313	-3.522681	-5.483669
O	1.270139	-1.271093	-7.735257
O	3.232162	-1.271093	-5.774269
O	3.232162	-3.232082	-7.735257
Rh	-1.125575	-5.628969	-7.880557
Rh	3.376726	-3.377381	-5.628969
Rh	5.627877	-5.628969	-5.628969
Rh	1.125575	-3.377381	-7.880557
Gd	4.502302	0.000000	-4.503175
Gd	6.753452	-2.251588	-6.754763
O	8.023592	-0.980494	-5.483669
O	3.521290	0.980494	-8.025856
O	5.483313	-0.980494	-8.025856
O	5.772441	1.271093	-5.774269
O	9.985615	0.980494	-5.483669
O	5.772441	3.232082	-7.735257
O	7.734464	3.232082	-5.774269
O	7.734464	1.271093	-7.735257
Rh	3.376726	-1.125794	-7.880557
Rh	7.879028	1.125794	-5.628969
Rh	10.130179	-1.125794	-5.628969
Rh	5.627877	1.125794	-7.880557
