112

Co	0.000000	0.000000	0.000000
Co	2.295656	-2.296152	-2.296152
O	3.504139	-1.086975	-1.086975
O	-1.087172	1.086975	-3.505328
O	1.087172	-1.086975	-3.505328
O	1.208484	1.209177	-1.209177
O	5.678483	1.086975	-1.086975
O	1.208484	3.383127	-3.383127
O	3.382828	3.383127	-1.209177
O	3.382828	1.209177	-3.383127
Tm	-1.147828	-1.148076	-3.444228
Tm	3.443483	1.148076	-1.148076
Tm	5.739139	-1.148076	-1.148076
Tm	1.147828	1.148076	-3.444228
Co	4.591311	4.592303	0.000000
Co	6.886967	2.296152	-2.296152
O	8.095450	3.505328	-1.086975
O	3.504139	5.679279	-3.505328
O	5.678483	3.505328	-3.505328
O	5.799795	5.801480	-1.209177
O	10.269795	5.679279	-1.086975
O	5.799795	7.975430	-3.383127
O	7.974139	7.975430	-1.209177
O	7.974139	5.801480	-3.383127
Tm	3.443483	3.444228	-3.444228
Tm	8.034795	5.740379	-1.148076
Tm	10.330450	3.444228	-1.148076
Tm	5.739139	5.740379	-3.444228
Co	-4.591311	0.000000	-4.592303
Co	-2.295656	-2.296152	-6.888455
O	-1.087172	-1.086975	-5.679279
O	-5.678483	1.086975	-8.097632
O	-3.504139	-1.086975	-8.097632
O	-3.382828	1.209177	-5.801480
O	1.087172	1.086975	-5.679279
O	-3.382828	3.383127	-7.975430
O	-1.208484	3.383127	-5.801480
O	-1.208484	1.209177	-7.975430
Tm	-5.739139	-1.148076	-8.036531
Tm	-1.147828	1.148076	-5.740379
Tm	1.147828	-1.148076	-5.740379
Tm	-3.443483	1.148076	-8.036531
Co	0.000000	4.592303	-4.592303
Co	2.295656	2.296152	-6.888455
O	3.504139	3.505328	-5.679279
O	-1.087172	5.679279	-8.097632
O	1.087172	3.505328	-8.097632
O	1.208484	5.801480	-5.801480
O	5.678483	5.679279	-5.679279
O	1.208484	7.975430	-7.975430
O	3.382828	7.975430	-5.801480
O	3.382828	5.801480	-7.975430
Tm	-1.147828	3.444228	-8.036531
Tm	3.443483	5.740379	-5.740379
Tm	5.739139	3.444228	-5.740379
Tm	1.147828	5.740379	-8.036531
Co	4.591311	-4.592303	0.000000
Co	6.886967	-6.888455	-2.296152
O	8.095450	-5.679279	-1.086975
O	3.504139	-3.505328	-3.505328
O	5.678483	-5.679279	-3.505328
O	5.799795	-3.383127	-1.209177
O	10.269795	-3.505328	-1.086975
O	5.799795	-1.209177	-3.383127
O	7.974139	-1.209177	-1.209177
O	7.974139	-3.383127	-3.383127
Tm	3.443483	-5.740379	-3.444228
Tm	8.034795	-3.444228	-1.148076
Tm	10.330450	-5.740379	-1.148076
Tm	5.739139	-3.444228	-3.444228
Co	9.182623	0.000000	0.000000
Co	11.478278	-2.296152	-2.296152
O	12.686762	-1.086975	-1.086975
O	8.095451	1.086975	-3.505328
O	10.269795	-1.086975	-3.505328
O	10.391106	1.209177	-1.209177
O	14.861106	1.086975	-1.086975
O	10.391106	3.383127	-3.383127
O	12.565450	3.383127	-1.209177
O	12.565450	1.209177	-3.383127
Tm	8.034795	-1.148076	-3.444228
Tm	12.626106	1.148076	-1.148076
Tm	14.921762	-1.148076	-1.148076
Tm	10.330450	1.148076	-3.444228
Co	0.000000	-4.592303	-4.592303
Co	2.295656	-6.888455	-6.888455
O	3.504139	-5.679279	-5.679279
O	-1.087172	-3.505328	-8.097632
O	1.087172	-5.679279	-8.097632
O	1.208484	-3.383127	-5.801480
O	5.678483	-3.505328	-5.679279
O	1.208484	-1.209177	-7.975430
O	3.382828	-1.209177	-5.801480
O	3.382828	-3.383127	-7.975430
Tm	-1.147828	-5.740379	-8.036531
Tm	3.443483	-3.444228	-5.740379
Tm	5.739139	-5.740379	-5.740379
Tm	1.147828	-3.444228	-8.036531
Co	4.591311	0.000000	-4.592303
Co	6.886967	-2.296152	-6.888455
O	8.095450	-1.086975	-5.679279
O	3.504139	1.086975	-8.097632
O	5.678483	-1.086975	-8.097632
O	5.799795	1.209177	-5.801480
O	10.269795	1.086975	-5.679279
O	5.799795	3.383127	-7.975430
O	7.974139	3.383127	-5.801480
O	7.974139	1.209177	-7.975430
Tm	3.443483	-1.148076	-8.036531
Tm	8.034795	1.148076	-5.740379
Tm	10.330450	-1.148076	-5.740379
Tm	5.739139	1.148076	-8.036531
