40

O	1.916096	0.000000	0.000000
O	0.000000	1.916096	0.000000
O	0.000000	0.000000	1.916096
Sr	1.916096	1.916096	1.916096
V	-0.015000	0.000000	0.000000
O	1.916096	0.000000	3.832193
O	0.000000	1.916096	3.832193
O	0.000000	0.000000	5.748289
Sr	1.916096	1.916096	5.748289
V	-0.015000	0.000000	3.832193
O	1.916096	3.832193	0.000000
O	0.000000	5.748289	0.000000
O	0.000000	3.832193	1.916096
Sr	1.916096	5.748289	1.916096
V	-0.015000	3.832193	0.000000
O	1.916096	3.832193	3.832193
O	0.000000	5.748289	3.832193
O	0.000000	3.832193	5.748289
Sr	1.916096	5.748289	5.748289
V	-0.015000	3.832193	3.832193
O	5.748289	0.000000	0.000000
O	3.832193	1.916096	0.000000
O	3.832193	0.000000	1.916096
Sr	5.748289	1.916096	1.916096
V	3.817193	0.000000	0.000000
O	5.748289	0.000000	3.832193
O	3.832193	1.916096	3.832193
O	3.832193	0.000000	5.748289
Sr	5.748289	1.916096	5.748289
V	3.817193	0.000000	3.832193
O	5.748289	3.832193	0.000000
O	3.832193	5.748289	0.000000
O	3.832193	3.832193	1.916096
Sr	5.748289	5.748289	1.916096
V	3.817193	3.832193	0.000000
O	5.748289	3.832193	3.832193
O	3.832193	5.748289	3.832193
O	3.832193	3.832193	5.748289
Sr	5.748289	5.748289	5.748289
V	3.817193	3.832193	3.832193
