112

O	-0.924480	0.924121	-3.771151
O	3.769202	-0.924121	-0.924121
O	0.924480	-0.924121	-3.771151
O	1.422361	1.423515	-1.423515
O	5.618152	0.924121	-0.924121
O	1.422361	3.271757	-3.271757
O	3.271311	3.271757	-1.423515
O	3.271311	1.423515	-3.271757
Rb	0.000000	0.000000	0.000000
Rb	2.346841	-2.347636	-2.347636
Ta	-1.173421	-1.173818	-3.521454
Ta	3.520252	1.173818	-1.173818
Ta	5.867093	-1.173818	-1.173818
Ta	1.173421	1.173818	-3.521454
O	3.769195	5.619389	-3.771151
O	8.462877	3.771147	-0.924121
O	5.618154	3.771147	-3.771151
O	6.116036	6.118783	-1.423515
O	10.311827	5.619389	-0.924121
O	6.116036	7.967025	-3.271757
O	7.964985	7.967025	-1.423515
O	7.964985	6.118783	-3.271757
Rb	4.693675	4.695268	0.000000
Rb	7.040516	2.347632	-2.347636
Ta	3.520254	3.521450	-3.521454
Ta	8.213926	5.869086	-1.173818
Ta	10.560767	3.521450	-1.173818
Ta	5.867095	5.869086	-3.521454
O	-5.618154	0.924121	-8.466419
O	-0.924472	-0.924121	-5.619389
O	-3.769195	-0.924121	-8.466419
O	-3.271313	1.423515	-6.118783
O	0.924478	0.924121	-5.619389
O	-3.271313	3.271757	-7.967025
O	-1.422364	3.271757	-6.118783
O	-1.422364	1.423515	-7.967025
Rb	-4.693675	0.000000	-4.695268
Rb	-2.346833	-2.347636	-7.042904
Ta	-5.867095	-1.173818	-8.216722
Ta	-1.173423	1.173818	-5.869086
Ta	1.173418	-1.173818	-5.869086
Ta	-3.520254	1.173818	-8.216722
O	-0.924480	5.619389	-8.466419
O	3.769202	3.771147	-5.619389
O	0.924480	3.771147	-8.466419
O	1.422361	6.118783	-6.118783
O	5.618152	5.619389	-5.619389
O	1.422361	7.967025	-7.967025
O	3.271311	7.967025	-6.118783
O	3.271311	6.118783	-7.967025
Rb	0.000000	4.695268	-4.695268
Rb	2.346841	2.347632	-7.042904
Ta	-1.173421	3.521450	-8.216722
Ta	3.520252	5.869086	-5.869086
Ta	5.867093	3.521450	-5.869086
Ta	1.173421	5.869086	-8.216722
O	3.769195	-3.771147	-3.771151
O	8.462877	-5.619389	-0.924121
O	5.618154	-5.619389	-3.771151
O	6.116036	-3.271753	-1.423515
O	10.311827	-3.771147	-0.924121
O	6.116036	-1.423512	-3.271757
O	7.964985	-1.423512	-1.423515
O	7.964985	-3.271753	-3.271757
Rb	4.693675	-4.695268	0.000000
Rb	7.040516	-7.042904	-2.347636
Ta	3.520254	-5.869086	-3.521454
Ta	8.213926	-3.521450	-1.173818
Ta	10.560767	-5.869086	-1.173818
Ta	5.867095	-3.521450	-3.521454
O	8.462869	0.924121	-3.771151
O	13.156551	-0.924121	-0.924121
O	10.311829	-0.924121	-3.771151
O	10.809710	1.423515	-1.423515
O	15.005501	0.924121	-0.924121
O	10.809710	3.271757	-3.271757
O	12.658660	3.271757	-1.423515
O	12.658660	1.423515	-3.271757
Rb	9.387349	0.000000	0.000000
Rb	11.734190	-2.347636	-2.347636
Ta	8.213928	-1.173818	-3.521454
Ta	12.907601	1.173818	-1.173818
Ta	15.254442	-1.173818	-1.173818
Ta	10.560770	1.173818	-3.521454
O	-0.924480	-3.771147	-8.466419
O	3.769202	-5.619389	-5.619389
O	0.924480	-5.619389	-8.466419
O	1.422361	-3.271753	-6.118783
O	5.618152	-3.771147	-5.619389
O	1.422361	-1.423512	-7.967025
O	3.271311	-1.423512	-6.118783
O	3.271311	-3.271753	-7.967025
Rb	0.000000	-4.695268	-4.695268
Rb	2.346841	-7.042904	-7.042904
Ta	-1.173421	-5.869086	-8.216722
Ta	3.520252	-3.521450	-5.869086
Ta	5.867093	-5.869086	-5.869086
Ta	1.173421	-3.521450	-8.216722
O	3.769195	0.924121	-8.466419
O	8.462877	-0.924121	-5.619389
O	5.618154	-0.924121	-8.466419
O	6.116036	1.423515	-6.118783
O	10.311827	0.924121	-5.619389
O	6.116036	3.271757	-7.967025
O	7.964985	3.271757	-6.118783
O	7.964985	1.423515	-7.967025
Rb	4.693675	0.000000	-4.695268
Rb	7.040516	-2.347636	-7.042904
Ta	3.520254	-1.173818	-8.216722
Ta	8.213926	1.173818	-5.869086
Ta	10.560767	-1.173818	-5.869086
Ta	5.867095	1.173818	-8.216722
