40

Ir	0.000000	0.000000	0.000000
Mn	1.851127	1.851127	1.851127
O	0.000000	1.851127	1.851127
O	1.851127	0.000000	1.851127
O	1.851127	1.851127	0.000000
Ir	0.000000	0.000000	3.702255
Mn	1.851127	1.851127	5.553382
O	0.000000	1.851127	5.553382
O	1.851127	0.000000	5.553382
O	1.851127	1.851127	3.702255
Ir	0.000000	3.702255	0.000000
Mn	1.851127	5.553382	1.851127
O	0.000000	5.553382	1.851127
O	1.851127	3.702255	1.851127
O	1.851127	5.553382	0.000000
Ir	0.000000	3.702255	3.702255
Mn	1.851127	5.553382	5.553382
O	0.000000	5.553382	5.553382
O	1.851127	3.702255	5.553382
O	1.851127	5.553382	3.702255
Ir	3.702255	0.000000	0.000000
Mn	5.553382	1.851127	1.851127
O	3.702255	1.851127	1.851127
O	5.553382	0.000000	1.851127
O	5.553382	1.851127	0.000000
Ir	3.702255	0.000000	3.702255
Mn	5.553382	1.851127	5.553382
O	3.702255	1.851127	5.553382
O	5.553382	0.000000	5.553382
O	5.553382	1.851127	3.702255
Ir	3.702255	3.702255	0.000000
Mn	5.553382	5.553382	1.851127
O	3.702255	5.553382	1.851127
O	5.553382	3.702255	1.851127
O	5.553382	5.553382	0.000000
Ir	3.702255	3.702255	3.702255
Mn	5.553382	5.553382	5.553382
O	3.702255	5.553382	5.553382
O	5.553382	3.702255	5.553382
O	5.553382	5.553382	3.702255
