40

Ir	0.000000	0.000000	0.000000
Mn	1.859991	1.859991	1.859991
O	0.000000	1.859991	1.859991
O	1.859991	0.000000	1.859991
O	1.859991	1.859991	0.000000
Ir	0.000000	0.000000	3.719982
Mn	1.859991	1.859991	5.579974
O	0.000000	1.859991	5.579974
O	1.859991	0.000000	5.579974
O	1.859991	1.859991	3.719982
Ir	0.000000	3.719982	0.000000
Mn	1.859991	5.579974	1.859991
O	0.000000	5.579974	1.859991
O	1.859991	3.719982	1.859991
O	1.859991	5.579974	0.000000
Ir	0.000000	3.719982	3.719982
Mn	1.859991	5.579974	5.579974
O	0.000000	5.579974	5.579974
O	1.859991	3.719982	5.579974
O	1.859991	5.579974	3.719982
Ir	3.719982	0.000000	0.000000
Mn	5.579974	1.859991	1.859991
O	3.719982	1.859991	1.859991
O	5.579974	0.000000	1.859991
O	5.579974	1.859991	0.000000
Ir	3.719982	0.000000	3.719982
Mn	5.579974	1.859991	5.579974
O	3.719982	1.859991	5.579974
O	5.579974	0.000000	5.579974
O	5.579974	1.859991	3.719982
Ir	3.719982	3.719982	0.000000
Mn	5.579974	5.579974	1.859991
O	3.719982	5.579974	1.859991
O	5.579974	3.719982	1.859991
O	5.579974	5.579974	0.000000
Ir	3.719982	3.719982	3.719982
Mn	5.579974	5.579974	5.579974
O	3.719982	5.579974	5.579974
O	5.579974	3.719982	5.579974
O	5.579974	5.579974	3.719982
