112

Au	0.000000	0.000000	0.000000
Au	2.333111	-2.334175	-2.334175
Na	-1.166555	-1.167087	-3.501262
Na	3.499666	1.167087	-1.167087
Na	5.832777	-1.167087	-1.167087
Na	1.166555	1.167087	-3.501262
O	3.450505	-1.215225	-1.215225
O	-1.215717	1.215225	-3.453124
O	1.215717	-1.215225	-3.453124
O	1.117394	1.118950	-1.118950
O	5.881939	1.215225	-1.215225
O	1.117394	3.549399	-3.549399
O	3.548828	3.549399	-1.118950
O	3.548828	1.118950	-3.549399
Au	4.666222	4.668349	0.000000
Au	6.999333	2.334175	-2.334175
Na	3.499666	3.501262	-3.501262
Na	8.165888	5.835437	-1.167087
Na	10.498999	3.501262	-1.167087
Na	5.832777	5.835437	-3.501262
O	8.116727	3.453124	-1.215225
O	3.450505	5.883574	-3.453124
O	5.881939	3.453124	-3.453124
O	5.783616	5.787299	-1.118950
O	10.548161	5.883574	-1.215225
O	5.783616	8.217749	-3.549399
O	8.215050	8.217749	-1.118950
O	8.215050	5.787299	-3.549399
Au	-4.666222	0.000000	-4.668349
Au	-2.333111	-2.334175	-7.002524
Na	-5.832777	-1.167087	-8.169611
Na	-1.166555	1.167087	-5.835437
Na	1.166555	-1.167087	-5.835437
Na	-3.499666	1.167087	-8.169611
O	-1.215717	-1.215225	-5.883574
O	-5.881939	1.215225	-8.121474
O	-3.450505	-1.215225	-8.121474
O	-3.548828	1.118950	-5.787299
O	1.215717	1.215225	-5.883574
O	-3.548828	3.549399	-8.217749
O	-1.117394	3.549399	-5.787299
O	-1.117394	1.118950	-8.217749
Au	0.000000	4.668349	-4.668349
Au	2.333111	2.334175	-7.002524
Na	-1.166555	3.501262	-8.169611
Na	3.499666	5.835437	-5.835437
Na	5.832777	3.501262	-5.835437
Na	1.166555	5.835437	-8.169611
O	3.450505	3.453124	-5.883574
O	-1.215717	5.883574	-8.121474
O	1.215717	3.453124	-8.121474
O	1.117394	5.787299	-5.787299
O	5.881939	5.883574	-5.883574
O	1.117394	8.217749	-8.217749
O	3.548828	8.217749	-5.787299
O	3.548828	5.787299	-8.217749
Au	4.666222	-4.668349	0.000000
Au	6.999333	-7.002524	-2.334175
Na	3.499666	-5.835437	-3.501262
Na	8.165888	-3.501262	-1.167087
Na	10.498999	-5.835437	-1.167087
Na	5.832777	-3.501262	-3.501262
O	8.116727	-5.883574	-1.215225
O	3.450505	-3.453124	-3.453124
O	5.881939	-5.883574	-3.453124
O	5.783616	-3.549399	-1.118950
O	10.548161	-3.453124	-1.215225
O	5.783616	-1.118950	-3.549399
O	8.215050	-1.118950	-1.118950
O	8.215050	-3.549399	-3.549399
Au	9.332444	0.000000	0.000000
Au	11.665555	-2.334175	-2.334175
Na	8.165888	-1.167087	-3.501262
Na	12.832110	1.167087	-1.167087
Na	15.165221	-1.167087	-1.167087
Na	10.498999	1.167087	-3.501262
O	12.782948	-1.215225	-1.215225
O	8.116727	1.215225	-3.453124
O	10.548161	-1.215225	-3.453124
O	10.449838	1.118950	-1.118950
O	15.214383	1.215225	-1.215225
O	10.449838	3.549399	-3.549399
O	12.881272	3.549399	-1.118950
O	12.881272	1.118950	-3.549399
Au	0.000000	-4.668349	-4.668349
Au	2.333111	-7.002524	-7.002524
Na	-1.166555	-5.835437	-8.169611
Na	3.499666	-3.501262	-5.835437
Na	5.832777	-5.835437	-5.835437
Na	1.166555	-3.501262	-8.169611
O	3.450505	-5.883574	-5.883574
O	-1.215717	-3.453124	-8.121474
O	1.215717	-5.883574	-8.121474
O	1.117394	-3.549399	-5.787299
O	5.881939	-3.453124	-5.883574
O	1.117394	-1.118950	-8.217749
O	3.548828	-1.118950	-5.787299
O	3.548828	-3.549399	-8.217749
Au	4.666222	0.000000	-4.668349
Au	6.999333	-2.334175	-7.002524
Na	3.499666	-1.167087	-8.169611
Na	8.165888	1.167087	-5.835437
Na	10.498999	-1.167087	-5.835437
Na	5.832777	1.167087	-8.169611
O	8.116727	-1.215225	-5.883574
O	3.450505	1.215225	-8.121474
O	5.881939	-1.215225	-8.121474
O	5.783616	1.118950	-5.787299
O	10.548161	1.215225	-5.883574
O	5.783616	3.549399	-8.217749
O	8.215050	3.549399	-5.787299
O	8.215050	1.118950	-8.217749
