112

Au	0.000000	0.000000	0.000000
Au	2.300736	-2.302344	-2.302344
Na	-1.150373	-1.151177	-3.453520
Na	5.751845	-1.151177	-1.151177
Na	1.150373	1.151177	-3.453520
Na	3.451109	1.151177	-1.151177
O	1.112633	1.114934	-1.114934
O	-1.188103	1.187410	-3.417278
O	3.413369	-1.187410	-1.187410
O	1.188103	-1.187410	-3.417278
O	1.112633	3.489763	-3.489763
O	3.488839	1.114934	-3.489763
O	3.488839	3.489763	-1.114934
O	5.789575	1.187410	-1.187410
Au	4.601474	4.604696	0.000000
Au	6.902210	2.302353	-2.302344
Na	3.451101	3.453520	-3.453520
Na	10.353319	3.453520	-1.151177
Na	5.751847	5.755873	-3.453520
Na	8.052583	5.755873	-1.151177
O	5.714106	5.719630	-1.114934
O	3.413370	5.792106	-3.417278
O	8.014842	3.417287	-1.187410
O	5.789577	3.417287	-3.417278
O	5.714106	8.094459	-3.489763
O	8.090313	5.719630	-3.489763
O	8.090313	8.094460	-1.114934
O	10.391049	5.792106	-1.187410
Au	-4.601474	0.000000	-4.604696
Au	-2.300738	-2.302344	-6.907040
Na	-5.751847	-1.151177	-8.058217
Na	1.150371	-1.151177	-5.755873
Na	-3.451101	1.151177	-8.058217
Na	-1.150365	1.151177	-5.755873
O	-3.488841	1.114934	-5.719630
O	-5.789577	1.187410	-8.021974
O	-1.188105	-1.187410	-5.792106
O	-3.413370	-1.187410	-8.021974
O	-3.488841	3.489763	-8.094459
O	-1.112634	1.114934	-8.094459
O	-1.112634	3.489763	-5.719630
O	1.188102	1.187410	-5.792106
Au	0.000000	4.604696	-4.604696
Au	2.300736	2.302353	-6.907040
Na	-1.150373	3.453520	-8.058217
Na	5.751845	3.453520	-5.755873
Na	1.150373	5.755873	-8.058217
Na	3.451109	5.755873	-5.755873
O	1.112633	5.719630	-5.719630
O	-1.188103	5.792106	-8.021974
O	3.413369	3.417287	-5.792106
O	1.188103	3.417287	-8.021974
O	1.112633	8.094459	-8.094459
O	3.488839	5.719630	-8.094459
O	3.488839	8.094460	-5.719630
O	5.789575	5.792106	-5.792106
Au	4.601474	-4.604696	0.000000
Au	6.902210	-6.907040	-2.302344
Na	3.451101	-5.755873	-3.453520
Na	10.353319	-5.755873	-1.151177
Na	5.751847	-3.453520	-3.453520
Na	8.052583	-3.453520	-1.151177
O	5.714106	-3.489762	-1.114934
O	3.413370	-3.417287	-3.417278
O	8.014842	-5.792106	-1.187410
O	5.789577	-5.792106	-3.417278
O	5.714106	-1.114933	-3.489763
O	8.090313	-3.489762	-3.489763
O	8.090313	-1.114933	-1.114934
O	10.391049	-3.417287	-1.187410
Au	9.202948	0.000000	0.000000
Au	11.503684	-2.302344	-2.302344
Na	8.052575	-1.151177	-3.453520
Na	14.954793	-1.151177	-1.151177
Na	10.353321	1.151177	-3.453520
Na	12.654057	1.151177	-1.151177
O	10.315580	1.114934	-1.114934
O	8.014844	1.187410	-3.417278
O	12.616316	-1.187410	-1.187410
O	10.391051	-1.187410	-3.417278
O	10.315580	3.489763	-3.489763
O	12.691787	1.114934	-3.489763
O	12.691787	3.489763	-1.114934
O	14.992523	1.187410	-1.187410
Au	0.000000	-4.604696	-4.604696
Au	2.300736	-6.907040	-6.907040
Na	-1.150373	-5.755873	-8.058217
Na	5.751845	-5.755873	-5.755873
Na	1.150373	-3.453520	-8.058217
Na	3.451109	-3.453520	-5.755873
O	1.112633	-3.489762	-5.719630
O	-1.188103	-3.417287	-8.021974
O	3.413369	-5.792106	-5.792106
O	1.188103	-5.792106	-8.021974
O	1.112633	-1.114933	-8.094459
O	3.488839	-3.489762	-8.094459
O	3.488839	-1.114933	-5.719630
O	5.789575	-3.417287	-5.792106
Au	4.601474	0.000000	-4.604696
Au	6.902210	-2.302344	-6.907040
Na	3.451101	-1.151177	-8.058217
Na	10.353319	-1.151177	-5.755873
Na	5.751847	1.151177	-8.058217
Na	8.052583	1.151177	-5.755873
O	5.714106	1.114934	-5.719630
O	3.413370	1.187410	-8.021974
O	8.014842	-1.187410	-5.792106
O	5.789577	-1.187410	-8.021974
O	5.714106	3.489763	-8.094459
O	8.090313	1.114934	-8.094459
O	8.090313	3.489763	-5.719630
O	10.391049	1.187410	-5.792106
