40

Bi	2.102225	2.102225	2.102225
O	2.102225	2.102225	0.000000
O	0.000000	2.102225	2.102225
O	2.102225	0.000000	2.102225
Ru	0.000000	0.000000	0.000000
Bi	2.102225	2.102225	6.306674
O	2.102225	2.102225	4.204449
O	0.000000	2.102225	6.306674
O	2.102225	0.000000	6.306674
Ru	0.000000	0.000000	4.204449
Bi	2.102225	6.306674	2.102225
O	2.102225	6.306674	0.000000
O	0.000000	6.306674	2.102225
O	2.102225	4.204449	2.102225
Ru	0.000000	4.204449	0.000000
Bi	2.102225	6.306674	6.306674
O	2.102225	6.306674	4.204449
O	0.000000	6.306674	6.306674
O	2.102225	4.204449	6.306674
Ru	0.000000	4.204449	4.204449
Bi	6.306674	2.102225	2.102225
O	6.306674	2.102225	0.000000
O	4.204449	2.102225	2.102225
O	6.306674	0.000000	2.102225
Ru	4.204449	0.000000	0.000000
Bi	6.306674	2.102225	6.306674
O	6.306674	2.102225	4.204449
O	4.204449	2.102225	6.306674
O	6.306674	0.000000	6.306674
Ru	4.204449	0.000000	4.204449
Bi	6.306674	6.306674	2.102225
O	6.306674	6.306674	0.000000
O	4.204449	6.306674	2.102225
O	6.306674	4.204449	2.102225
Ru	4.204449	4.204449	0.000000
Bi	6.306674	6.306674	6.306674
O	6.306674	6.306674	4.204449
O	4.204449	6.306674	6.306674
O	6.306674	4.204449	6.306674
Ru	4.204449	4.204449	4.204449
