40

O	0.000000	2.059665	2.059665
O	2.059665	0.000000	2.059665
O	2.059665	2.059665	0.000000
Pd	0.000000	0.000000	0.000000
Sn	2.059665	2.059665	2.059665
O	0.000000	2.059665	6.178995
O	2.059665	0.000000	6.178995
O	2.059665	2.059665	4.119330
Pd	0.000000	0.000000	4.119330
Sn	2.059665	2.059665	6.178995
O	0.000000	6.178995	2.059665
O	2.059665	4.119330	2.059665
O	2.059665	6.178995	0.000000
Pd	0.000000	4.119330	0.000000
Sn	2.059665	6.178995	2.059665
O	0.000000	6.178995	6.178995
O	2.059665	4.119330	6.178995
O	2.059665	6.178995	4.119330
Pd	0.000000	4.119330	4.119330
Sn	2.059665	6.178995	6.178995
O	4.119330	2.059665	2.059665
O	6.178995	0.000000	2.059665
O	6.178995	2.059665	0.000000
Pd	4.119330	0.000000	0.000000
Sn	6.178995	2.059665	2.059665
O	4.119330	2.059665	6.178995
O	6.178995	0.000000	6.178995
O	6.178995	2.059665	4.119330
Pd	4.119330	0.000000	4.119330
Sn	6.178995	2.059665	6.178995
O	4.119330	6.178995	2.059665
O	6.178995	4.119330	2.059665
O	6.178995	6.178995	0.000000
Pd	4.119330	4.119330	0.000000
Sn	6.178995	6.178995	2.059665
O	4.119330	6.178995	6.178995
O	6.178995	4.119330	6.178995
O	6.178995	6.178995	4.119330
Pd	4.119330	4.119330	4.119330
Sn	6.178995	6.178995	6.178995
