40

O	1.989640	1.989640	0.000000
O	0.000000	1.989640	1.989640
O	1.989640	0.000000	1.989640
Pd	1.989640	1.989640	1.989640
Sn_d	0.000000	0.000000	0.000000
O	1.989640	1.989640	3.979295
O	0.000000	1.989640	5.968935
O	1.989640	0.000000	5.968935
Pd	1.989640	1.989640	5.968935
Sn_d	0.000000	0.000000	3.979295
O	1.989640	5.968935	0.000000
O	0.000000	5.968935	1.989640
O	1.989640	3.979295	1.989640
Pd	1.989640	5.968935	1.989640
Sn_d	0.000000	3.979295	0.000000
O	1.989640	5.968935	3.979295
O	0.000000	5.968935	5.968935
O	1.989640	3.979295	5.968935
Pd	1.989640	5.968935	5.968935
Sn_d	0.000000	3.979295	3.979295
O	5.968935	1.989640	0.000000
O	3.979295	1.989640	1.989640
O	5.968935	0.000000	1.989640
Pd	5.968935	1.989640	1.989640
Sn_d	3.979295	0.000000	0.000000
O	5.968935	1.989640	3.979295
O	3.979295	1.989640	5.968935
O	5.968935	0.000000	5.968935
Pd	5.968935	1.989640	5.968935
Sn_d	3.979295	0.000000	3.979295
O	5.968935	5.968935	0.000000
O	3.979295	5.968935	1.989640
O	5.968935	3.979295	1.989640
Pd	5.968935	5.968935	1.989640
Sn_d	3.979295	3.979295	0.000000
O	5.968935	5.968935	3.979295
O	3.979295	5.968935	5.968935
O	5.968935	3.979295	5.968935
Pd	5.968935	5.968935	5.968935
Sn_d	3.979295	3.979295	3.979295
