40

Ca	0.000000	0.000000	0.000000
Cr	1.889969	1.889969	1.889969
O	1.889969	1.889969	0.000000
O	1.889969	0.000000	1.889969
O	0.000000	1.889969	1.889969
Ca	0.000000	0.000000	3.779947
Cr	1.889969	1.889969	5.669916
O	1.889969	1.889969	3.779947
O	1.889969	0.000000	5.669916
O	0.000000	1.889969	5.669916
Ca	0.000000	3.779947	0.000000
Cr	1.889969	5.669916	1.889969
O	1.889969	5.669916	0.000000
O	1.889969	3.779947	1.889969
O	0.000000	5.669916	1.889969
Ca	0.000000	3.779947	3.779947
Cr	1.889969	5.669916	5.669916
O	1.889969	5.669916	3.779947
O	1.889969	3.779947	5.669916
O	0.000000	5.669916	5.669916
Ca	3.779947	0.000000	0.000000
Cr	5.669916	1.889969	1.889969
O	5.669916	1.889969	0.000000
O	5.669916	0.000000	1.889969
O	3.779947	1.889969	1.889969
Ca	3.779947	0.000000	3.779947
Cr	5.669916	1.889969	5.669916
O	5.669916	1.889969	3.779947
O	5.669916	0.000000	5.669916
O	3.779947	1.889969	5.669916
Ca	3.779947	3.779947	0.000000
Cr	5.669916	5.669916	1.889969
O	5.669916	5.669916	0.000000
O	5.669916	3.779947	1.889969
O	3.779947	5.669916	1.889969
Ca	3.779947	3.779947	3.779947
Cr	5.669916	5.669916	5.669916
O	5.669916	5.669916	3.779947
O	5.669916	3.779947	5.669916
O	3.779947	5.669916	5.669916
