40

O	2.069440	2.069440	0.000000
O	0.000000	2.069440	2.069440
O	2.069440	0.000000	2.069440
Sn_d	2.069440	2.069440	2.069440
U	0.000000	0.000000	0.000000
O	2.069440	2.069440	4.138881
O	0.000000	2.069440	6.208321
O	2.069440	0.000000	6.208321
Sn_d	2.069440	2.069440	6.208321
U	0.000000	0.000000	4.138881
O	2.069440	6.208321	0.000000
O	0.000000	6.208321	2.069440
O	2.069440	4.138881	2.069440
Sn_d	2.069440	6.208321	2.069440
U	0.000000	4.138881	0.000000
O	2.069440	6.208321	4.138881
O	0.000000	6.208321	6.208321
O	2.069440	4.138881	6.208321
Sn_d	2.069440	6.208321	6.208321
U	0.000000	4.138881	4.138881
O	6.208321	2.069440	0.000000
O	4.138881	2.069440	2.069440
O	6.208321	0.000000	2.069440
Sn_d	6.208321	2.069440	2.069440
U	4.138881	0.000000	0.000000
O	6.208321	2.069440	4.138881
O	4.138881	2.069440	6.208321
O	6.208321	0.000000	6.208321
Sn_d	6.208321	2.069440	6.208321
U	4.138881	0.000000	4.138881
O	6.208321	6.208321	0.000000
O	4.138881	6.208321	2.069440
O	6.208321	4.138881	2.069440
Sn_d	6.208321	6.208321	2.069440
U	4.138881	4.138881	0.000000
O	6.208321	6.208321	4.138881
O	4.138881	6.208321	6.208321
O	6.208321	4.138881	6.208321
Sn_d	6.208321	6.208321	6.208321
U	4.138881	4.138881	4.138881
