40

Ga	0.000000	0.000000	0.000000
Ni	1.835328	1.835328	1.835328
O	0.000000	1.835328	1.835328
O	1.835328	0.000000	1.835328
O	1.835328	1.835328	0.000000
Ga	0.000000	0.000000	3.670657
Ni	1.835328	1.835328	5.505985
O	0.000000	1.835328	5.505985
O	1.835328	0.000000	5.505985
O	1.835328	1.835328	3.670657
Ga	0.000000	3.670657	0.000000
Ni	1.835328	5.505985	1.835328
O	0.000000	5.505985	1.835328
O	1.835328	3.670657	1.835328
O	1.835328	5.505985	0.000000
Ga	0.000000	3.670657	3.670657
Ni	1.835328	5.505985	5.505985
O	0.000000	5.505985	5.505985
O	1.835328	3.670657	5.505985
O	1.835328	5.505985	3.670657
Ga	3.670657	0.000000	0.000000
Ni	5.505985	1.835328	1.835328
O	3.670657	1.835328	1.835328
O	5.505985	0.000000	1.835328
O	5.505985	1.835328	0.000000
Ga	3.670657	0.000000	3.670657
Ni	5.505985	1.835328	5.505985
O	3.670657	1.835328	5.505985
O	5.505985	0.000000	5.505985
O	5.505985	1.835328	3.670657
Ga	3.670657	3.670657	0.000000
Ni	5.505985	5.505985	1.835328
O	3.670657	5.505985	1.835328
O	5.505985	3.670657	1.835328
O	5.505985	5.505985	0.000000
Ga	3.670657	3.670657	3.670657
Ni	5.505985	5.505985	5.505985
O	3.670657	5.505985	5.505985
O	5.505985	3.670657	5.505985
O	5.505985	5.505985	3.670657
