40

N	1.826744	1.826744	1.826744
O	0.000000	1.826744	1.826744
O	1.826744	0.000000	1.826744
O	1.826744	1.826744	0.000000
Sn	0.000000	0.000000	0.000000
N	1.826744	1.826744	5.480231
O	0.000000	1.826744	5.480231
O	1.826744	0.000000	5.480231
O	1.826744	1.826744	3.653487
Sn	0.000000	0.000000	3.653487
N	1.826744	5.480231	1.826744
O	0.000000	5.480231	1.826744
O	1.826744	3.653487	1.826744
O	1.826744	5.480231	0.000000
Sn	0.000000	3.653487	0.000000
N	1.826744	5.480231	5.480231
O	0.000000	5.480231	5.480231
O	1.826744	3.653487	5.480231
O	1.826744	5.480231	3.653487
Sn	0.000000	3.653487	3.653487
N	5.480231	1.826744	1.826744
O	3.653487	1.826744	1.826744
O	5.480231	0.000000	1.826744
O	5.480231	1.826744	0.000000
Sn	3.653487	0.000000	0.000000
N	5.480231	1.826744	5.480231
O	3.653487	1.826744	5.480231
O	5.480231	0.000000	5.480231
O	5.480231	1.826744	3.653487
Sn	3.653487	0.000000	3.653487
N	5.480231	5.480231	1.826744
O	3.653487	5.480231	1.826744
O	5.480231	3.653487	1.826744
O	5.480231	5.480231	0.000000
Sn	3.653487	3.653487	0.000000
N	5.480231	5.480231	5.480231
O	3.653487	5.480231	5.480231
O	5.480231	3.653487	5.480231
O	5.480231	5.480231	3.653487
Sn	3.653487	3.653487	3.653487
