112

Mn	0.000000	0.000000	0.000000
Mn	2.140056	-2.140056	-2.140056
O	3.309742	-0.970370	-0.970370
O	-0.970370	0.970370	-3.309742
O	0.970370	-0.970370	-3.309742
O	1.169686	1.169686	-1.169686
O	5.250483	0.970370	-0.970370
O	3.110427	3.110427	-1.169686
O	1.169686	3.110427	-3.110427
O	3.110427	1.169686	-3.110427
V	-1.070028	-1.070028	-3.210084
V	3.210084	1.070028	-1.070028
V	5.350141	-1.070028	-1.070028
V	1.070028	1.070028	-3.210084
Mn	4.280113	4.280113	0.000000
Mn	6.420169	2.140056	-2.140056
O	7.589855	3.309742	-0.970370
O	3.309742	5.250483	-3.309742
O	5.250483	3.309742	-3.309742
O	5.449799	5.449799	-1.169686
O	9.530595	5.250483	-0.970370
O	7.390539	7.390539	-1.169686
O	5.449799	7.390539	-3.110427
O	7.390539	5.449799	-3.110427
V	3.210084	3.210084	-3.210084
V	7.490197	5.350141	-1.070028
V	9.630253	3.210084	-1.070028
V	5.350141	5.350141	-3.210084
Mn	-4.280113	0.000000	-4.280113
Mn	-2.140056	-2.140056	-6.420169
O	-0.970370	-0.970370	-5.250483
O	-5.250483	0.970370	-7.589855
O	-3.309742	-0.970370	-7.589855
O	-3.110427	1.169686	-5.449799
O	0.970370	0.970370	-5.250483
O	-1.169686	3.110427	-5.449799
O	-3.110427	3.110427	-7.390539
O	-1.169686	1.169686	-7.390539
V	-5.350141	-1.070028	-7.490197
V	-1.070028	1.070028	-5.350141
V	1.070028	-1.070028	-5.350141
V	-3.210084	1.070028	-7.490197
Mn	0.000000	4.280113	-4.280113
Mn	2.140056	2.140056	-6.420169
O	3.309742	3.309742	-5.250483
O	-0.970370	5.250483	-7.589855
O	0.970370	3.309742	-7.589855
O	1.169686	5.449799	-5.449799
O	5.250483	5.250483	-5.250483
O	3.110427	7.390539	-5.449799
O	1.169686	7.390539	-7.390539
O	3.110427	5.449799	-7.390539
V	-1.070028	3.210084	-7.490197
V	3.210084	5.350141	-5.350141
V	5.350141	3.210084	-5.350141
V	1.070028	5.350141	-7.490197
Mn	4.280113	-4.280113	0.000000
Mn	6.420169	-6.420169	-2.140056
O	7.589855	-5.250483	-0.970370
O	3.309742	-3.309742	-3.309742
O	5.250483	-5.250483	-3.309742
O	5.449799	-3.110427	-1.169686
O	9.530595	-3.309742	-0.970370
O	7.390539	-1.169686	-1.169686
O	5.449799	-1.169686	-3.110427
O	7.390539	-3.110427	-3.110427
V	3.210084	-5.350141	-3.210084
V	7.490197	-3.210084	-1.070028
V	9.630253	-5.350141	-1.070028
V	5.350141	-3.210084	-3.210084
Mn	8.560225	0.000000	0.000000
Mn	10.700282	-2.140056	-2.140056
O	11.869968	-0.970370	-0.970370
O	7.589855	0.970370	-3.309742
O	9.530596	-0.970370	-3.309742
O	9.729911	1.169686	-1.169686
O	13.810708	0.970370	-0.970370
O	11.670652	3.110427	-1.169686
O	9.729911	3.110427	-3.110427
O	11.670652	1.169686	-3.110427
V	7.490197	-1.070028	-3.210084
V	11.770310	1.070028	-1.070028
V	13.910366	-1.070028	-1.070028
V	9.630253	1.070028	-3.210084
Mn	0.000000	-4.280113	-4.280113
Mn	2.140056	-6.420169	-6.420169
O	3.309742	-5.250483	-5.250483
O	-0.970370	-3.309742	-7.589855
O	0.970370	-5.250483	-7.589855
O	1.169686	-3.110427	-5.449799
O	5.250483	-3.309742	-5.250483
O	3.110427	-1.169686	-5.449799
O	1.169686	-1.169686	-7.390539
O	3.110427	-3.110427	-7.390539
V	-1.070028	-5.350141	-7.490197
V	3.210084	-3.210084	-5.350141
V	5.350141	-5.350141	-5.350141
V	1.070028	-3.210084	-7.490197
Mn	4.280113	0.000000	-4.280113
Mn	6.420169	-2.140056	-6.420169
O	7.589855	-0.970370	-5.250483
O	3.309742	0.970370	-7.589855
O	5.250483	-0.970370	-7.589855
O	5.449799	1.169686	-5.449799
O	9.530595	0.970370	-5.250483
O	7.390539	3.110427	-5.449799
O	5.449799	3.110427	-7.390539
O	7.390539	1.169686	-7.390539
V	3.210084	-1.070028	-7.490197
V	7.490197	1.070028	-5.350141
V	9.630253	-1.070028	-5.350141
V	5.350141	1.070028	-7.490197
