40

O	1.989690	1.989690	0.000000
O	1.989690	0.000000	1.989690
O	0.000000	1.989690	1.989690
Pb_d	0.000000	0.000000	0.000000
Rh	1.989690	1.989690	1.989690
O	1.989690	1.989690	3.979394
O	1.989690	0.000000	5.969084
O	0.000000	1.989690	5.969084
Pb_d	0.000000	0.000000	3.979394
Rh	1.989690	1.989690	5.969084
O	1.989690	5.969084	0.000000
O	1.989690	3.979394	1.989690
O	0.000000	5.969084	1.989690
Pb_d	0.000000	3.979394	0.000000
Rh	1.989690	5.969084	1.989690
O	1.989690	5.969084	3.979394
O	1.989690	3.979394	5.969084
O	0.000000	5.969084	5.969084
Pb_d	0.000000	3.979394	3.979394
Rh	1.989690	5.969084	5.969084
O	5.969084	1.989690	0.000000
O	5.969084	0.000000	1.989690
O	3.979394	1.989690	1.989690
Pb_d	3.979394	0.000000	0.000000
Rh	5.969084	1.989690	1.989690
O	5.969084	1.989690	3.979394
O	5.969084	0.000000	5.969084
O	3.979394	1.989690	5.969084
Pb_d	3.979394	0.000000	3.979394
Rh	5.969084	1.989690	5.969084
O	5.969084	5.969084	0.000000
O	5.969084	3.979394	1.989690
O	3.979394	5.969084	1.989690
Pb_d	3.979394	3.979394	0.000000
Rh	5.969084	5.969084	1.989690
O	5.969084	5.969084	3.979394
O	5.969084	3.979394	5.969084
O	3.979394	5.969084	5.969084
Pb_d	3.979394	3.979394	3.979394
Rh	5.969084	5.969084	5.969084
