40

K	2.097480	2.097480	2.097480
O	2.097480	2.097480	0.000000
O	0.000000	2.097480	2.097480
O	2.097480	0.000000	2.097480
Sm	0.000000	0.000000	0.000000
K	2.097480	2.097480	6.292429
O	2.097480	2.097480	4.194949
O	0.000000	2.097480	6.292429
O	2.097480	0.000000	6.292429
Sm	0.000000	0.000000	4.194949
K	2.097480	6.292429	2.097480
O	2.097480	6.292429	0.000000
O	0.000000	6.292429	2.097480
O	2.097480	4.194949	2.097480
Sm	0.000000	4.194949	0.000000
K	2.097480	6.292429	6.292429
O	2.097480	6.292429	4.194949
O	0.000000	6.292429	6.292429
O	2.097480	4.194949	6.292429
Sm	0.000000	4.194949	4.194949
K	6.292429	2.097480	2.097480
O	6.292429	2.097480	0.000000
O	4.194949	2.097480	2.097480
O	6.292429	0.000000	2.097480
Sm	4.194949	0.000000	0.000000
K	6.292429	2.097480	6.292429
O	6.292429	2.097480	4.194949
O	4.194949	2.097480	6.292429
O	6.292429	0.000000	6.292429
Sm	4.194949	0.000000	4.194949
K	6.292429	6.292429	2.097480
O	6.292429	6.292429	0.000000
O	4.194949	6.292429	2.097480
O	6.292429	4.194949	2.097480
Sm	4.194949	4.194949	0.000000
K	6.292429	6.292429	6.292429
O	6.292429	6.292429	4.194949
O	4.194949	6.292429	6.292429
O	6.292429	4.194949	6.292429
Sm	4.194949	4.194949	4.194949
