40

Ag	0.000000	0.000000	0.000000
O	2.143820	0.000000	2.143820
O	0.000000	2.143820	2.143820
O	2.143820	2.143820	0.000000
U	2.143820	2.143820	2.143820
Ag	0.000000	0.000000	4.287624
O	2.143820	0.000000	6.431444
O	0.000000	2.143820	6.431444
O	2.143820	2.143820	4.287624
U	2.143820	2.143820	6.431444
Ag	0.000000	4.287624	0.000000
O	2.143820	4.287624	2.143820
O	0.000000	6.431444	2.143820
O	2.143820	6.431444	0.000000
U	2.143820	6.431444	2.143820
Ag	0.000000	4.287624	4.287624
O	2.143820	4.287624	6.431444
O	0.000000	6.431444	6.431444
O	2.143820	6.431444	4.287624
U	2.143820	6.431444	6.431444
Ag	4.287624	0.000000	0.000000
O	6.431444	0.000000	2.143820
O	4.287624	2.143820	2.143820
O	6.431444	2.143820	0.000000
U	6.431444	2.143820	2.143820
Ag	4.287624	0.000000	4.287624
O	6.431444	0.000000	6.431444
O	4.287624	2.143820	6.431444
O	6.431444	2.143820	4.287624
U	6.431444	2.143820	6.431444
Ag	4.287624	4.287624	0.000000
O	6.431444	4.287624	2.143820
O	4.287624	6.431444	2.143820
O	6.431444	6.431444	0.000000
U	6.431444	6.431444	2.143820
Ag	4.287624	4.287624	4.287624
O	6.431444	4.287624	6.431444
O	4.287624	6.431444	6.431444
O	6.431444	6.431444	4.287624
U	6.431444	6.431444	6.431444
