40

Cr	1.942119	1.942119	1.942119
O	0.000000	1.942119	1.942119
O	1.942119	0.000000	1.942119
O	1.942119	1.942119	0.000000
Sb	0.000000	0.000000	0.000000
Cr	1.942119	1.942119	5.826357
O	0.000000	1.942119	5.826357
O	1.942119	0.000000	5.826357
O	1.942119	1.942119	3.884238
Sb	0.000000	0.000000	3.884238
Cr	1.942119	5.826357	1.942119
O	0.000000	5.826357	1.942119
O	1.942119	3.884238	1.942119
O	1.942119	5.826357	0.000000
Sb	0.000000	3.884238	0.000000
Cr	1.942119	5.826357	5.826357
O	0.000000	5.826357	5.826357
O	1.942119	3.884238	5.826357
O	1.942119	5.826357	3.884238
Sb	0.000000	3.884238	3.884238
Cr	5.826357	1.942119	1.942119
O	3.884238	1.942119	1.942119
O	5.826357	0.000000	1.942119
O	5.826357	1.942119	0.000000
Sb	3.884238	0.000000	0.000000
Cr	5.826357	1.942119	5.826357
O	3.884238	1.942119	5.826357
O	5.826357	0.000000	5.826357
O	5.826357	1.942119	3.884238
Sb	3.884238	0.000000	3.884238
Cr	5.826357	5.826357	1.942119
O	3.884238	5.826357	1.942119
O	5.826357	3.884238	1.942119
O	5.826357	5.826357	0.000000
Sb	3.884238	3.884238	0.000000
Cr	5.826357	5.826357	5.826357
O	3.884238	5.826357	5.826357
O	5.826357	3.884238	5.826357
O	5.826357	5.826357	3.884238
Sb	3.884238	3.884238	3.884238
