40

O	2.147570	2.147570	0.000000
O	0.000000	2.147570	2.147570
O	2.147570	0.000000	2.147570
Sm_3	0.000000	0.000000	0.000000
Tb_3	2.147570	2.147570	2.147570
O	2.147570	2.147570	4.295123
O	0.000000	2.147570	6.442693
O	2.147570	0.000000	6.442693
Sm_3	0.000000	0.000000	4.295123
Tb_3	2.147570	2.147570	6.442693
O	2.147570	6.442693	0.000000
O	0.000000	6.442693	2.147570
O	2.147570	4.295123	2.147570
Sm_3	0.000000	4.295123	0.000000
Tb_3	2.147570	6.442693	2.147570
O	2.147570	6.442693	4.295123
O	0.000000	6.442693	6.442693
O	2.147570	4.295123	6.442693
Sm_3	0.000000	4.295123	4.295123
Tb_3	2.147570	6.442693	6.442693
O	6.442693	2.147570	0.000000
O	4.295123	2.147570	2.147570
O	6.442693	0.000000	2.147570
Sm_3	4.295123	0.000000	0.000000
Tb_3	6.442693	2.147570	2.147570
O	6.442693	2.147570	4.295123
O	4.295123	2.147570	6.442693
O	6.442693	0.000000	6.442693
Sm_3	4.295123	0.000000	4.295123
Tb_3	6.442693	2.147570	6.442693
O	6.442693	6.442693	0.000000
O	4.295123	6.442693	2.147570
O	6.442693	4.295123	2.147570
Sm_3	4.295123	4.295123	0.000000
Tb_3	6.442693	6.442693	2.147570
O	6.442693	6.442693	4.295123
O	4.295123	6.442693	6.442693
O	6.442693	4.295123	6.442693
Sm_3	4.295123	4.295123	4.295123
Tb_3	6.442693	6.442693	6.442693
