40

O	2.047600	2.047600	0.000000
O	2.047600	0.000000	2.047600
O	0.000000	2.047600	2.047600
Pa	0.000000	0.000000	0.000000
Pt	2.047600	2.047600	2.047600
O	2.047600	2.047600	4.095200
O	2.047600	0.000000	6.142800
O	0.000000	2.047600	6.142800
Pa	0.000000	0.000000	4.095200
Pt	2.047600	2.047600	6.142800
O	2.047600	6.142800	0.000000
O	2.047600	4.095200	2.047600
O	0.000000	6.142800	2.047600
Pa	0.000000	4.095200	0.000000
Pt	2.047600	6.142800	2.047600
O	2.047600	6.142800	4.095200
O	2.047600	4.095200	6.142800
O	0.000000	6.142800	6.142800
Pa	0.000000	4.095200	4.095200
Pt	2.047600	6.142800	6.142800
O	6.142800	2.047600	0.000000
O	6.142800	0.000000	2.047600
O	4.095200	2.047600	2.047600
Pa	4.095200	0.000000	0.000000
Pt	6.142800	2.047600	2.047600
O	6.142800	2.047600	4.095200
O	6.142800	0.000000	6.142800
O	4.095200	2.047600	6.142800
Pa	4.095200	0.000000	4.095200
Pt	6.142800	2.047600	6.142800
O	6.142800	6.142800	0.000000
O	6.142800	4.095200	2.047600
O	4.095200	6.142800	2.047600
Pa	4.095200	4.095200	0.000000
Pt	6.142800	6.142800	2.047600
O	6.142800	6.142800	4.095200
O	6.142800	4.095200	6.142800
O	4.095200	6.142800	6.142800
Pa	4.095200	4.095200	4.095200
Pt	6.142800	6.142800	6.142800
