40

O	2.006320	2.006320	0.000000
O	0.000000	2.006320	2.006320
O	2.006320	0.000000	2.006320
Sc_sv	2.006320	2.006320	2.006320
Yb_2	0.000000	0.000000	0.000000
O	2.006320	2.006320	4.012643
O	0.000000	2.006320	6.018963
O	2.006320	0.000000	6.018963
Sc_sv	2.006320	2.006320	6.018963
Yb_2	0.000000	0.000000	4.012643
O	2.006320	6.018963	0.000000
O	0.000000	6.018963	2.006320
O	2.006320	4.012643	2.006320
Sc_sv	2.006320	6.018963	2.006320
Yb_2	0.000000	4.012643	0.000000
O	2.006320	6.018963	4.012643
O	0.000000	6.018963	6.018963
O	2.006320	4.012643	6.018963
Sc_sv	2.006320	6.018963	6.018963
Yb_2	0.000000	4.012643	4.012643
O	6.018963	2.006320	0.000000
O	4.012643	2.006320	2.006320
O	6.018963	0.000000	2.006320
Sc_sv	6.018963	2.006320	2.006320
Yb_2	4.012643	0.000000	0.000000
O	6.018963	2.006320	4.012643
O	4.012643	2.006320	6.018963
O	6.018963	0.000000	6.018963
Sc_sv	6.018963	2.006320	6.018963
Yb_2	4.012643	0.000000	4.012643
O	6.018963	6.018963	0.000000
O	4.012643	6.018963	2.006320
O	6.018963	4.012643	2.006320
Sc_sv	6.018963	6.018963	2.006320
Yb_2	4.012643	4.012643	0.000000
O	6.018963	6.018963	4.012643
O	4.012643	6.018963	6.018963
O	6.018963	4.012643	6.018963
Sc_sv	6.018963	6.018963	6.018963
Yb_2	4.012643	4.012643	4.012643
