112

Li	0.000000	0.000000	0.000000
Li	2.409746	-2.410138	-2.410138
Np	-1.204868	-1.205069	-3.615206
Np	6.024359	-1.205069	-1.205069
Np	3.614614	1.205069	-1.205069
Np	1.204868	1.205069	-3.615206
O	3.701763	-1.117516	-1.117516
O	-1.117728	1.117516	-3.702759
O	1.117728	-1.117516	-3.702759
O	1.292018	1.292621	-1.292621
O	5.937209	1.117516	-1.117516
O	1.292018	3.527654	-3.527654
O	3.527464	1.292621	-3.527654
O	3.527464	3.527654	-1.292621
Li	4.819490	4.820273	0.000000
Li	7.229236	2.410136	-2.410138
Np	3.614622	3.615204	-3.615206
Np	10.843849	3.615204	-1.205069
Np	8.434104	6.025342	-1.205069
Np	6.024358	6.025342	-3.615206
O	8.521253	3.702757	-1.117516
O	3.701762	5.937789	-3.702759
O	5.937218	3.702757	-3.702759
O	6.111508	6.112894	-1.292621
O	10.756700	5.937789	-1.117516
O	6.111508	8.347927	-3.527654
O	8.346954	6.112894	-3.527654
O	8.346954	8.347927	-1.292621
Li	-4.819490	0.000000	-4.820273
Li	-2.409744	-2.410138	-7.230411
Np	-6.024358	-1.205069	-8.435479
Np	1.204869	-1.205069	-6.025342
Np	-1.204877	1.205069	-6.025342
Np	-3.614622	1.205069	-8.435479
O	-1.117727	-1.117516	-5.937789
O	-5.937218	1.117516	-8.523032
O	-3.701762	-1.117516	-8.523032
O	-3.527472	1.292621	-6.112894
O	1.117719	1.117516	-5.937789
O	-3.527472	3.527654	-8.347927
O	-1.292026	1.292621	-8.347927
O	-1.292026	3.527654	-6.112894
Li	0.000000	4.820273	-4.820273
Li	2.409746	2.410136	-7.230411
Np	-1.204868	3.615204	-8.435479
Np	6.024359	3.615204	-6.025342
Np	3.614614	6.025342	-6.025342
Np	1.204868	6.025342	-8.435479
O	3.701763	3.702757	-5.937789
O	-1.117728	5.937789	-8.523032
O	1.117728	3.702757	-8.523032
O	1.292018	6.112894	-6.112894
O	5.937209	5.937789	-5.937789
O	1.292018	8.347927	-8.347927
O	3.527464	6.112894	-8.347927
O	3.527464	8.347927	-6.112894
Li	4.819490	-4.820273	0.000000
Li	7.229236	-7.230411	-2.410138
Np	3.614622	-6.025342	-3.615206
Np	10.843849	-6.025342	-1.205069
Np	8.434104	-3.615204	-1.205069
Np	6.024358	-3.615204	-3.615206
O	8.521253	-5.937789	-1.117516
O	3.701762	-3.702757	-3.702759
O	5.937218	-5.937789	-3.702759
O	6.111508	-3.527652	-1.292621
O	10.756700	-3.702757	-1.117516
O	6.111508	-1.292619	-3.527654
O	8.346954	-3.527652	-3.527654
O	8.346954	-1.292619	-1.292621
Li	9.638980	0.000000	0.000000
Li	12.048726	-2.410138	-2.410138
Np	8.434112	-1.205069	-3.615206
Np	15.663339	-1.205069	-1.205069
Np	13.253594	1.205069	-1.205069
Np	10.843848	1.205069	-3.615206
O	13.340744	-1.117516	-1.117516
O	8.521252	1.117516	-3.702759
O	10.756708	-1.117516	-3.702759
O	10.930998	1.292621	-1.292621
O	15.576190	1.117516	-1.117516
O	10.930998	3.527654	-3.527654
O	13.166444	1.292621	-3.527654
O	13.166444	3.527654	-1.292621
Li	0.000000	-4.820273	-4.820273
Li	2.409746	-7.230411	-7.230411
Np	-1.204868	-6.025342	-8.435479
Np	6.024359	-6.025342	-6.025342
Np	3.614614	-3.615204	-6.025342
Np	1.204868	-3.615204	-8.435479
O	3.701763	-5.937789	-5.937789
O	-1.117728	-3.702757	-8.523032
O	1.117728	-5.937789	-8.523032
O	1.292018	-3.527652	-6.112894
O	5.937209	-3.702757	-5.937789
O	1.292018	-1.292619	-8.347927
O	3.527464	-3.527652	-8.347927
O	3.527464	-1.292619	-6.112894
Li	4.819490	0.000000	-4.820273
Li	7.229236	-2.410138	-7.230411
Np	3.614622	-1.205069	-8.435479
Np	10.843849	-1.205069	-6.025342
Np	8.434104	1.205069	-6.025342
Np	6.024358	1.205069	-8.435479
O	8.521253	-1.117516	-5.937789
O	3.701762	1.117516	-8.523032
O	5.937218	-1.117516	-8.523032
O	6.111508	1.292621	-6.112894
O	10.756700	1.117516	-5.937789
O	6.111508	3.527654	-8.347927
O	8.346954	1.292621	-8.347927
O	8.346954	3.527654	-6.112894
