40

O	0.000000	2.200691	2.200691
O	2.200691	0.000000	2.200691
O	2.200691	2.200691	0.000000
Rb	0.000000	0.000000	0.000000
Tl	2.200691	2.200691	2.200691
O	0.000000	2.200691	6.602073
O	2.200691	0.000000	6.602073
O	2.200691	2.200691	4.401382
Rb	0.000000	0.000000	4.401382
Tl	2.200691	2.200691	6.602073
O	0.000000	6.602073	2.200691
O	2.200691	4.401382	2.200691
O	2.200691	6.602073	0.000000
Rb	0.000000	4.401382	0.000000
Tl	2.200691	6.602073	2.200691
O	0.000000	6.602073	6.602073
O	2.200691	4.401382	6.602073
O	2.200691	6.602073	4.401382
Rb	0.000000	4.401382	4.401382
Tl	2.200691	6.602073	6.602073
O	4.401382	2.200691	2.200691
O	6.602073	0.000000	2.200691
O	6.602073	2.200691	0.000000
Rb	4.401382	0.000000	0.000000
Tl	6.602073	2.200691	2.200691
O	4.401382	2.200691	6.602073
O	6.602073	0.000000	6.602073
O	6.602073	2.200691	4.401382
Rb	4.401382	0.000000	4.401382
Tl	6.602073	2.200691	6.602073
O	4.401382	6.602073	2.200691
O	6.602073	4.401382	2.200691
O	6.602073	6.602073	0.000000
Rb	4.401382	4.401382	0.000000
Tl	6.602073	6.602073	2.200691
O	4.401382	6.602073	6.602073
O	6.602073	4.401382	6.602073
O	6.602073	6.602073	4.401382
Rb	4.401382	4.401382	4.401382
Tl	6.602073	6.602073	6.602073
