40

O	0.000000	2.538006	2.538006
O	2.538006	0.000000	2.538006
O	2.538006	2.538006	0.000000
Rb	2.538006	2.538006	2.538006
Tl	0.000000	0.000000	0.000000
O	0.000000	2.538006	7.614018
O	2.538006	0.000000	7.614018
O	2.538006	2.538006	5.076012
Rb	2.538006	2.538006	7.614018
Tl	0.000000	0.000000	5.076012
O	0.000000	7.614018	2.538006
O	2.538006	5.076012	2.538006
O	2.538006	7.614018	0.000000
Rb	2.538006	7.614018	2.538006
Tl	0.000000	5.076012	0.000000
O	0.000000	7.614018	7.614018
O	2.538006	5.076012	7.614018
O	2.538006	7.614018	5.076012
Rb	2.538006	7.614018	7.614018
Tl	0.000000	5.076012	5.076012
O	5.076012	2.538006	2.538006
O	7.614018	0.000000	2.538006
O	7.614018	2.538006	0.000000
Rb	7.614018	2.538006	2.538006
Tl	5.076012	0.000000	0.000000
O	5.076012	2.538006	7.614018
O	7.614018	0.000000	7.614018
O	7.614018	2.538006	5.076012
Rb	7.614018	2.538006	7.614018
Tl	5.076012	0.000000	5.076012
O	5.076012	7.614018	2.538006
O	7.614018	5.076012	2.538006
O	7.614018	7.614018	0.000000
Rb	7.614018	7.614018	2.538006
Tl	5.076012	5.076012	0.000000
O	5.076012	7.614018	7.614018
O	7.614018	5.076012	7.614018
O	7.614018	7.614018	5.076012
Rb	7.614018	7.614018	7.614018
Tl	5.076012	5.076012	5.076012
