40

O	0.000000	2.301589	2.301589
O	2.301589	0.000000	2.301589
O	2.301589	2.301589	0.000000
Ga	0.000000	0.000000	0.000000
Pr	2.301589	2.301589	2.301589
O	0.000000	2.301589	6.904766
O	2.301589	0.000000	6.904766
O	2.301589	2.301589	4.603177
Ga	0.000000	0.000000	4.603177
Pr	2.301589	2.301589	6.904766
O	0.000000	6.904766	2.301589
O	2.301589	4.603177	2.301589
O	2.301589	6.904766	0.000000
Ga	0.000000	4.603177	0.000000
Pr	2.301589	6.904766	2.301589
O	0.000000	6.904766	6.904766
O	2.301589	4.603177	6.904766
O	2.301589	6.904766	4.603177
Ga	0.000000	4.603177	4.603177
Pr	2.301589	6.904766	6.904766
O	4.603177	2.301589	2.301589
O	6.904766	0.000000	2.301589
O	6.904766	2.301589	0.000000
Ga	4.603177	0.000000	0.000000
Pr	6.904766	2.301589	2.301589
O	4.603177	2.301589	6.904766
O	6.904766	0.000000	6.904766
O	6.904766	2.301589	4.603177
Ga	4.603177	0.000000	4.603177
Pr	6.904766	2.301589	6.904766
O	4.603177	6.904766	2.301589
O	6.904766	4.603177	2.301589
O	6.904766	6.904766	0.000000
Ga	4.603177	4.603177	0.000000
Pr	6.904766	6.904766	2.301589
O	4.603177	6.904766	6.904766
O	6.904766	4.603177	6.904766
O	6.904766	6.904766	4.603177
Ga	4.603177	4.603177	4.603177
Pr	6.904766	6.904766	6.904766
