40

Ca	2.150083	2.150083	2.150083
O	2.150083	2.150083	0.000000
O	0.000000	2.150083	2.150083
O	2.150083	0.000000	2.150083
Pb	0.000000	0.000000	0.000000
Ca	2.150083	2.150083	6.450239
O	2.150083	2.150083	4.300157
O	0.000000	2.150083	6.450239
O	2.150083	0.000000	6.450239
Pb	0.000000	0.000000	4.300157
Ca	2.150083	6.450239	2.150083
O	2.150083	6.450239	0.000000
O	0.000000	6.450239	2.150083
O	2.150083	4.300157	2.150083
Pb	0.000000	4.300157	0.000000
Ca	2.150083	6.450239	6.450239
O	2.150083	6.450239	4.300157
O	0.000000	6.450239	6.450239
O	2.150083	4.300157	6.450239
Pb	0.000000	4.300157	4.300157
Ca	6.450239	2.150083	2.150083
O	6.450239	2.150083	0.000000
O	4.300157	2.150083	2.150083
O	6.450239	0.000000	2.150083
Pb	4.300157	0.000000	0.000000
Ca	6.450239	2.150083	6.450239
O	6.450239	2.150083	4.300157
O	4.300157	2.150083	6.450239
O	6.450239	0.000000	6.450239
Pb	4.300157	0.000000	4.300157
Ca	6.450239	6.450239	2.150083
O	6.450239	6.450239	0.000000
O	4.300157	6.450239	2.150083
O	6.450239	4.300157	2.150083
Pb	4.300157	4.300157	0.000000
Ca	6.450239	6.450239	6.450239
O	6.450239	6.450239	4.300157
O	4.300157	6.450239	6.450239
O	6.450239	4.300157	6.450239
Pb	4.300157	4.300157	4.300157
