40

Be	1.718863	1.718863	1.718863
Hf	0.000000	0.000000	0.000000
O	0.000000	1.718863	1.718863
O	1.718863	0.000000	1.718863
O	1.718863	1.718863	0.000000
Be	1.718863	1.718863	5.156589
Hf	0.000000	0.000000	3.437726
O	0.000000	1.718863	5.156589
O	1.718863	0.000000	5.156589
O	1.718863	1.718863	3.437726
Be	1.718863	5.156589	1.718863
Hf	0.000000	3.437726	0.000000
O	0.000000	5.156589	1.718863
O	1.718863	3.437726	1.718863
O	1.718863	5.156589	0.000000
Be	1.718863	5.156589	5.156589
Hf	0.000000	3.437726	3.437726
O	0.000000	5.156589	5.156589
O	1.718863	3.437726	5.156589
O	1.718863	5.156589	3.437726
Be	5.156589	1.718863	1.718863
Hf	3.437726	0.000000	0.000000
O	3.437726	1.718863	1.718863
O	5.156589	0.000000	1.718863
O	5.156589	1.718863	0.000000
Be	5.156589	1.718863	5.156589
Hf	3.437726	0.000000	3.437726
O	3.437726	1.718863	5.156589
O	5.156589	0.000000	5.156589
O	5.156589	1.718863	3.437726
Be	5.156589	5.156589	1.718863
Hf	3.437726	3.437726	0.000000
O	3.437726	5.156589	1.718863
O	5.156589	3.437726	1.718863
O	5.156589	5.156589	0.000000
Be	5.156589	5.156589	5.156589
Hf	3.437726	3.437726	3.437726
O	3.437726	5.156589	5.156589
O	5.156589	3.437726	5.156589
O	5.156589	5.156589	3.437726
