40

Co	1.824340	1.824340	1.824340
Mo_pv	0.000000	0.000000	0.000000
O	1.824340	1.824340	0.000000
O	0.000000	1.824340	1.824340
O	1.824340	0.000000	1.824340
Co	1.824340	1.824340	5.473012
Mo_pv	0.000000	0.000000	3.648672
O	1.824340	1.824340	3.648672
O	0.000000	1.824340	5.473012
O	1.824340	0.000000	5.473012
Co	1.824340	5.473012	1.824340
Mo_pv	0.000000	3.648672	0.000000
O	1.824340	5.473012	0.000000
O	0.000000	5.473012	1.824340
O	1.824340	3.648672	1.824340
Co	1.824340	5.473012	5.473012
Mo_pv	0.000000	3.648672	3.648672
O	1.824340	5.473012	3.648672
O	0.000000	5.473012	5.473012
O	1.824340	3.648672	5.473012
Co	5.473012	1.824340	1.824340
Mo_pv	3.648672	0.000000	0.000000
O	5.473012	1.824340	0.000000
O	3.648672	1.824340	1.824340
O	5.473012	0.000000	1.824340
Co	5.473012	1.824340	5.473012
Mo_pv	3.648672	0.000000	3.648672
O	5.473012	1.824340	3.648672
O	3.648672	1.824340	5.473012
O	5.473012	0.000000	5.473012
Co	5.473012	5.473012	1.824340
Mo_pv	3.648672	3.648672	0.000000
O	5.473012	5.473012	0.000000
O	3.648672	5.473012	1.824340
O	5.473012	3.648672	1.824340
Co	5.473012	5.473012	5.473012
Mo_pv	3.648672	3.648672	3.648672
O	5.473012	5.473012	3.648672
O	3.648672	5.473012	5.473012
O	5.473012	3.648672	5.473012
