112

Mn	0.000000	0.000000	0.000000
Mn	2.156333	-2.157008	-2.157008
O	3.319933	-0.992517	-0.992517
O	-0.992732	0.992517	-3.321500
O	0.992732	-0.992517	-3.321500
O	1.163601	1.164491	-1.164491
O	5.305397	0.992517	-0.992517
O	1.163601	3.149525	-3.149525
O	3.149064	3.149525	-1.164491
O	3.149064	1.164491	-3.149525
Ru	-1.078166	-1.078504	-3.235512
Ru	3.234499	1.078504	-1.078504
Ru	5.390831	-1.078504	-1.078504
Ru	1.078166	1.078504	-3.235512
Mn	4.312665	4.314016	0.000000
Mn	6.468998	2.157008	-2.157008
O	7.632598	3.321500	-0.992517
O	3.319933	5.306533	-3.321500
O	5.305397	3.321500	-3.321500
O	5.476266	5.478508	-1.164491
O	9.618062	5.306533	-0.992517
O	5.476266	7.463541	-3.149525
O	7.461729	7.463541	-1.164491
O	7.461729	5.478508	-3.149525
Ru	3.234499	3.235512	-3.235512
Ru	7.547164	5.392520	-1.078504
Ru	9.703496	3.235512	-1.078504
Ru	5.390831	5.392520	-3.235512
Mn	-4.312665	0.000000	-4.314016
Mn	-2.156333	-2.157008	-6.471024
O	-0.992732	-0.992517	-5.306533
O	-5.305397	0.992517	-7.635516
O	-3.319933	-0.992517	-7.635516
O	-3.149064	1.164491	-5.478508
O	0.992732	0.992517	-5.306533
O	-3.149064	3.149525	-7.463541
O	-1.163601	3.149525	-5.478508
O	-1.163601	1.164491	-7.463541
Ru	-5.390831	-1.078504	-7.549528
Ru	-1.078166	1.078504	-5.392520
Ru	1.078166	-1.078504	-5.392520
Ru	-3.234499	1.078504	-7.549528
Mn	0.000000	4.314016	-4.314016
Mn	2.156333	2.157008	-6.471024
O	3.319933	3.321500	-5.306533
O	-0.992732	5.306533	-7.635516
O	0.992732	3.321500	-7.635516
O	1.163601	5.478508	-5.478508
O	5.305397	5.306533	-5.306533
O	1.163601	7.463541	-7.463541
O	3.149064	7.463541	-5.478508
O	3.149064	5.478508	-7.463541
Ru	-1.078166	3.235512	-7.549528
Ru	3.234499	5.392520	-5.392520
Ru	5.390831	3.235512	-5.392520
Ru	1.078166	5.392520	-7.549528
Mn	4.312665	-4.314016	0.000000
Mn	6.468998	-6.471024	-2.157008
O	7.632598	-5.306533	-0.992517
O	3.319933	-3.321500	-3.321500
O	5.305397	-5.306533	-3.321500
O	5.476266	-3.149525	-1.164491
O	9.618062	-3.321500	-0.992517
O	5.476266	-1.164491	-3.149525
O	7.461729	-1.164491	-1.164491
O	7.461729	-3.149525	-3.149525
Ru	3.234499	-5.392520	-3.235512
Ru	7.547164	-3.235512	-1.078504
Ru	9.703496	-5.392520	-1.078504
Ru	5.390831	-3.235512	-3.235512
Mn	8.625330	0.000000	0.000000
Mn	10.781663	-2.157008	-2.157008
O	11.945264	-0.992517	-0.992517
O	7.632598	0.992517	-3.321500
O	9.618062	-0.992517	-3.321500
O	9.788931	1.164491	-1.164491
O	13.930727	0.992517	-0.992517
O	9.788931	3.149525	-3.149525
O	11.774394	3.149525	-1.164491
O	11.774394	1.164491	-3.149525
Ru	7.547164	-1.078504	-3.235512
Ru	11.859829	1.078504	-1.078504
Ru	14.016161	-1.078504	-1.078504
Ru	9.703496	1.078504	-3.235512
Mn	0.000000	-4.314016	-4.314016
Mn	2.156333	-6.471024	-6.471024
O	3.319933	-5.306533	-5.306533
O	-0.992732	-3.321500	-7.635516
O	0.992732	-5.306533	-7.635516
O	1.163601	-3.149525	-5.478508
O	5.305397	-3.321500	-5.306533
O	1.163601	-1.164491	-7.463541
O	3.149064	-1.164491	-5.478508
O	3.149064	-3.149525	-7.463541
Ru	-1.078166	-5.392520	-7.549528
Ru	3.234499	-3.235512	-5.392520
Ru	5.390831	-5.392520	-5.392520
Ru	1.078166	-3.235512	-7.549528
Mn	4.312665	0.000000	-4.314016
Mn	6.468998	-2.157008	-6.471024
O	7.632598	-0.992517	-5.306533
O	3.319933	0.992517	-7.635516
O	5.305397	-0.992517	-7.635516
O	5.476266	1.164491	-5.478508
O	9.618062	0.992517	-5.306533
O	5.476266	3.149525	-7.463541
O	7.461729	3.149525	-5.478508
O	7.461729	1.164491	-7.463541
Ru	3.234499	-1.078504	-7.549528
Ru	7.547164	1.078504	-5.392520
Ru	9.703496	-1.078504	-5.392520
Ru	5.390831	1.078504	-7.549528
