112

Lu	0.000000	0.000000	0.000000
Lu	2.225462	-2.225765	-2.225765
O	-1.004858	1.004328	-3.447203
O	3.446065	-1.004328	-1.004328
O	1.004858	-1.004328	-3.447203
O	1.220604	1.221437	-1.221437
O	5.455782	1.004328	-1.004328
O	1.220604	3.230094	-3.230094
O	3.230320	3.230094	-1.221437
O	3.230320	1.221437	-3.230094
Si	-1.112731	-1.112883	-3.338648
Si	1.112731	1.112883	-3.338648
Si	3.338193	1.112883	-1.112883
Si	5.563655	-1.112883	-1.112883
Lu	4.450922	4.451530	0.000000
Lu	6.676383	2.225764	-2.225765
O	3.446063	5.455858	-3.447203
O	7.896987	3.447202	-1.004328
O	5.455780	3.447202	-3.447203
O	5.671525	5.672967	-1.221437
O	9.906703	5.455858	-1.004328
O	5.671525	7.681623	-3.230094
O	7.681242	7.681623	-1.221437
O	7.681242	5.672967	-3.230094
Si	3.338191	3.338647	-3.338648
Si	5.563652	5.564412	-3.338648
Si	7.789114	5.564412	-1.112883
Si	10.014576	3.338647	-1.112883
Lu	-4.450922	0.000000	-4.451530
Lu	-2.225460	-2.225765	-6.677295
O	-5.455780	1.004328	-7.898732
O	-1.004856	-1.004328	-5.455858
O	-3.446063	-1.004328	-7.898732
O	-3.230318	1.221437	-5.672967
O	1.004860	1.004328	-5.455858
O	-3.230318	3.230094	-7.681623
O	-1.220601	3.230094	-5.672967
O	-1.220601	1.221437	-7.681623
Si	-5.563652	-1.112883	-7.790178
Si	-3.338191	1.112883	-7.790178
Si	-1.112729	1.112883	-5.564412
Si	1.112733	-1.112883	-5.564412
Lu	0.000000	4.451530	-4.451530
Lu	2.225462	2.225764	-6.677295
O	-1.004858	5.455858	-7.898732
O	3.446065	3.447202	-5.455858
O	1.004858	3.447202	-7.898732
O	1.220604	5.672967	-5.672967
O	5.455782	5.455858	-5.455858
O	1.220604	7.681623	-7.681623
O	3.230320	7.681623	-5.672967
O	3.230320	5.672967	-7.681623
Si	-1.112731	3.338647	-7.790178
Si	1.112731	5.564412	-7.790178
Si	3.338193	5.564412	-5.564412
Si	5.563655	3.338647	-5.564412
Lu	4.450922	-4.451530	0.000000
Lu	6.676383	-6.677295	-2.225765
O	3.446063	-3.447202	-3.447203
O	7.896987	-5.455858	-1.004328
O	5.455780	-5.455858	-3.447203
O	5.671525	-3.230092	-1.221437
O	9.906703	-3.447202	-1.004328
O	5.671525	-1.221436	-3.230094
O	7.681242	-1.221436	-1.221437
O	7.681242	-3.230092	-3.230094
Si	3.338191	-5.564412	-3.338648
Si	5.563652	-3.338647	-3.338648
Si	7.789114	-3.338647	-1.112883
Si	10.014576	-5.564412	-1.112883
Lu	8.901843	0.000000	0.000000
Lu	11.127305	-2.225765	-2.225765
O	7.896985	1.004328	-3.447203
O	12.347908	-1.004328	-1.004328
O	9.906701	-1.004328	-3.447203
O	10.122447	1.221437	-1.221437
O	14.357625	1.004328	-1.004328
O	10.122447	3.230094	-3.230094
O	12.132163	3.230094	-1.221437
O	12.132163	1.221437	-3.230094
Si	7.789112	-1.112883	-3.338648
Si	10.014574	1.112883	-3.338648
Si	12.240036	1.112883	-1.112883
Si	14.465498	-1.112883	-1.112883
Lu	0.000000	-4.451530	-4.451530
Lu	2.225462	-6.677295	-6.677295
O	-1.004858	-3.447202	-7.898732
O	3.446065	-5.455858	-5.455858
O	1.004858	-5.455858	-7.898732
O	1.220604	-3.230092	-5.672967
O	5.455782	-3.447202	-5.455858
O	1.220604	-1.221436	-7.681623
O	3.230320	-1.221436	-5.672967
O	3.230320	-3.230092	-7.681623
Si	-1.112731	-5.564412	-7.790178
Si	1.112731	-3.338647	-7.790178
Si	3.338193	-3.338647	-5.564412
Si	5.563655	-5.564412	-5.564412
Lu	4.450922	0.000000	-4.451530
Lu	6.676383	-2.225765	-6.677295
O	3.446063	1.004328	-7.898732
O	7.896987	-1.004328	-5.455858
O	5.455780	-1.004328	-7.898732
O	5.671525	1.221437	-5.672967
O	9.906703	1.004328	-5.455858
O	5.671525	3.230094	-7.681623
O	7.681242	3.230094	-5.672967
O	7.681242	1.221437	-7.681623
Si	3.338191	-1.112883	-7.790178
Si	5.563652	1.112883	-7.790178
Si	7.789114	1.112883	-5.564412
Si	10.014576	-1.112883	-5.564412
