40

Lu	0.000000	0.000000	0.000000
Ni	1.855052	1.855052	1.855052
O	1.855052	1.855052	0.000000
O	1.855052	0.000000	1.855052
O	0.000000	1.855052	1.855052
Lu	0.000000	0.000000	3.710105
Ni	1.855052	1.855052	5.565157
O	1.855052	1.855052	3.710105
O	1.855052	0.000000	5.565157
O	0.000000	1.855052	5.565157
Lu	0.000000	3.710105	0.000000
Ni	1.855052	5.565157	1.855052
O	1.855052	5.565157	0.000000
O	1.855052	3.710105	1.855052
O	0.000000	5.565157	1.855052
Lu	0.000000	3.710105	3.710105
Ni	1.855052	5.565157	5.565157
O	1.855052	5.565157	3.710105
O	1.855052	3.710105	5.565157
O	0.000000	5.565157	5.565157
Lu	3.710105	0.000000	0.000000
Ni	5.565157	1.855052	1.855052
O	5.565157	1.855052	0.000000
O	5.565157	0.000000	1.855052
O	3.710105	1.855052	1.855052
Lu	3.710105	0.000000	3.710105
Ni	5.565157	1.855052	5.565157
O	5.565157	1.855052	3.710105
O	5.565157	0.000000	5.565157
O	3.710105	1.855052	5.565157
Lu	3.710105	3.710105	0.000000
Ni	5.565157	5.565157	1.855052
O	5.565157	5.565157	0.000000
O	5.565157	3.710105	1.855052
O	3.710105	5.565157	1.855052
Lu	3.710105	3.710105	3.710105
Ni	5.565157	5.565157	5.565157
O	5.565157	5.565157	3.710105
O	5.565157	3.710105	5.565157
O	3.710105	5.565157	5.565157
