40

Co	1.830939	1.830939	1.830939
O	1.830939	1.830939	0.000000
O	1.830939	0.000000	1.830939
O	0.000000	1.830939	1.830939
Ru	0.000000	0.000000	0.000000
Co	1.830939	1.830939	5.492808
O	1.830939	1.830939	3.661869
O	1.830939	0.000000	5.492808
O	0.000000	1.830939	5.492808
Ru	0.000000	0.000000	3.661869
Co	1.830939	5.492808	1.830939
O	1.830939	5.492808	0.000000
O	1.830939	3.661869	1.830939
O	0.000000	5.492808	1.830939
Ru	0.000000	3.661869	0.000000
Co	1.830939	5.492808	5.492808
O	1.830939	5.492808	3.661869
O	1.830939	3.661869	5.492808
O	0.000000	5.492808	5.492808
Ru	0.000000	3.661869	3.661869
Co	5.492808	1.830939	1.830939
O	5.492808	1.830939	0.000000
O	5.492808	0.000000	1.830939
O	3.661869	1.830939	1.830939
Ru	3.661869	0.000000	0.000000
Co	5.492808	1.830939	5.492808
O	5.492808	1.830939	3.661869
O	5.492808	0.000000	5.492808
O	3.661869	1.830939	5.492808
Ru	3.661869	0.000000	3.661869
Co	5.492808	5.492808	1.830939
O	5.492808	5.492808	0.000000
O	5.492808	3.661869	1.830939
O	3.661869	5.492808	1.830939
Ru	3.661869	3.661869	0.000000
Co	5.492808	5.492808	5.492808
O	5.492808	5.492808	3.661869
O	5.492808	3.661869	5.492808
O	3.661869	5.492808	5.492808
Ru	3.661869	3.661869	3.661869
