112

As	0.000000	0.000000	0.000000
As	2.431037	-2.431079	-2.431079
K	-1.215514	-1.215534	-3.646603
K	1.215514	1.215534	-3.646603
K	3.646541	1.215534	-1.215534
K	6.077578	-1.215534	-1.215534
O	0.992542	0.992651	-0.992651
O	-1.438495	1.438418	-3.423729
O	3.423569	-1.438418	-1.438418
O	1.438495	-1.438418	-3.423729
O	0.992542	3.869487	-3.869487
O	3.869523	3.869487	-0.992651
O	3.869523	0.992651	-3.869487
O	6.300550	1.438418	-1.438418
As	4.862061	4.862144	0.000000
As	7.293098	2.431065	-2.431079
K	3.646547	3.646610	-3.646603
K	6.077574	6.077679	-3.646603
K	8.508602	6.077679	-1.215534
K	10.939639	3.646610	-1.215534
O	5.854603	5.854795	-0.992651
O	3.423565	6.300563	-3.423729
O	8.285630	3.423726	-1.438418
O	6.300556	3.423726	-3.423729
O	5.854603	8.731631	-3.869487
O	8.731583	8.731631	-0.992651
O	8.731583	5.854795	-3.869487
O	11.162611	6.300563	-1.438418
As	-4.862061	0.000000	-4.862144
As	-2.431023	-2.431079	-7.293223
K	-6.077574	-1.215534	-8.508748
K	-3.646547	1.215534	-8.508748
K	-1.215520	1.215534	-6.077679
K	1.215518	-1.215534	-6.077679
O	-3.869519	0.992651	-5.854795
O	-6.300556	1.438418	-8.285874
O	-1.438491	-1.438418	-6.300563
O	-3.423565	-1.438418	-8.285874
O	-3.869519	3.869487	-8.731631
O	-0.992538	3.869487	-5.854795
O	-0.992538	0.992651	-8.731631
O	1.438490	1.438418	-6.300563
As	0.000000	4.862144	-4.862144
As	2.431037	2.431065	-7.293223
K	-1.215514	3.646610	-8.508748
K	1.215514	6.077679	-8.508748
K	3.646541	6.077679	-6.077679
K	6.077578	3.646610	-6.077679
O	0.992542	5.854795	-5.854795
O	-1.438495	6.300563	-8.285874
O	3.423569	3.423726	-6.300563
O	1.438495	3.423726	-8.285874
O	0.992542	8.731631	-8.731631
O	3.869523	8.731631	-5.854795
O	3.869523	5.854795	-8.731631
O	6.300550	6.300563	-6.300563
As	4.862061	-4.862144	0.000000
As	7.293098	-7.293223	-2.431079
K	3.646547	-6.077679	-3.646603
K	6.077574	-3.646610	-3.646603
K	8.508602	-3.646610	-1.215534
K	10.939639	-6.077679	-1.215534
O	5.854603	-3.869494	-0.992651
O	3.423565	-3.423726	-3.423729
O	8.285630	-6.300562	-1.438418
O	6.300556	-6.300563	-3.423729
O	5.854603	-0.992657	-3.869487
O	8.731583	-0.992657	-0.992651
O	8.731583	-3.869494	-3.869487
O	11.162611	-3.423726	-1.438418
As	9.724121	0.000000	0.000000
As	12.155159	-2.431079	-2.431079
K	8.508607	-1.215534	-3.646603
K	10.939635	1.215534	-3.646603
K	13.370662	1.215534	-1.215534
K	15.801700	-1.215534	-1.215534
O	10.716663	0.992651	-0.992651
O	8.285626	1.438418	-3.423729
O	13.147691	-1.438418	-1.438418
O	11.162617	-1.438418	-3.423729
O	10.716663	3.869487	-3.869487
O	13.593644	3.869487	-0.992651
O	13.593644	0.992651	-3.869487
O	16.024671	1.438418	-1.438418
As	0.000000	-4.862144	-4.862144
As	2.431037	-7.293223	-7.293223
K	-1.215514	-6.077679	-8.508748
K	1.215514	-3.646610	-8.508748
K	3.646541	-3.646610	-6.077679
K	6.077578	-6.077679	-6.077679
O	0.992542	-3.869494	-5.854795
O	-1.438495	-3.423726	-8.285874
O	3.423569	-6.300562	-6.300563
O	1.438495	-6.300563	-8.285874
O	0.992542	-0.992657	-8.731631
O	3.869523	-0.992657	-5.854795
O	3.869523	-3.869494	-8.731631
O	6.300550	-3.423726	-6.300563
As	4.862061	0.000000	-4.862144
As	7.293098	-2.431079	-7.293223
K	3.646547	-1.215534	-8.508748
K	6.077574	1.215534	-8.508748
K	8.508602	1.215534	-6.077679
K	10.939639	-1.215534	-6.077679
O	5.854603	0.992651	-5.854795
O	3.423565	1.438418	-8.285874
O	8.285630	-1.438418	-6.300563
O	6.300556	-1.438418	-8.285874
O	5.854603	3.869487	-8.731631
O	8.731583	3.869487	-5.854795
O	8.731583	0.992651	-8.731631
O	11.162611	1.438418	-6.300563
