112

As	0.000000	0.000000	0.000000
As	2.486236	-2.486435	-2.486435
K	-1.243118	-1.243218	-3.729653
K	3.729355	1.243218	-1.243218
K	6.215591	-1.243218	-1.243218
K	1.243118	1.243218	-3.729653
O	3.483442	-1.488924	-1.488924
O	-1.489031	1.488924	-3.483946
O	1.489031	-1.488924	-3.483946
O	0.997205	0.997511	-0.997511
O	6.461504	1.488924	-1.488924
O	0.997205	3.975359	-3.975359
O	3.975267	3.975359	-0.997511
O	3.975267	0.997511	-3.975359
As	4.972473	4.972870	0.000000
As	7.458709	2.486435	-2.486435
K	3.729355	3.729653	-3.729653
K	8.701827	6.216088	-1.243218
K	11.188064	3.729653	-1.243218
K	6.215591	6.216088	-3.729653
O	8.455914	3.483946	-1.488924
O	3.483442	6.461794	-3.483946
O	6.461504	3.483946	-3.483946
O	5.969678	5.970381	-0.997511
O	11.433976	6.461794	-1.488924
O	5.969678	8.948229	-3.975359
O	8.947740	8.948229	-0.997511
O	8.947740	5.970381	-3.975359
As	-4.972473	0.000000	-4.972870
As	-2.486236	-2.486435	-7.459305
K	-6.215591	-1.243218	-8.702523
K	-1.243118	1.243218	-6.216088
K	1.243118	-1.243218	-6.216088
K	-3.729355	1.243218	-8.702523
O	-1.489031	-1.488924	-6.461794
O	-6.461504	1.488924	-8.456817
O	-3.483442	-1.488924	-8.456817
O	-3.975267	0.997511	-5.970381
O	1.489031	1.488924	-6.461794
O	-3.975267	3.975359	-8.948229
O	-0.997205	3.975359	-5.970381
O	-0.997205	0.997511	-8.948229
As	0.000000	4.972870	-4.972870
As	2.486236	2.486435	-7.459305
K	-1.243118	3.729653	-8.702523
K	3.729355	6.216088	-6.216088
K	6.215591	3.729653	-6.216088
K	1.243118	6.216088	-8.702523
O	3.483442	3.483946	-6.461794
O	-1.489031	6.461794	-8.456817
O	1.489031	3.483946	-8.456817
O	0.997205	5.970381	-5.970381
O	6.461504	6.461794	-6.461794
O	0.997205	8.948229	-8.948229
O	3.975267	8.948229	-5.970381
O	3.975267	5.970381	-8.948229
As	4.972473	-4.972870	0.000000
As	7.458709	-7.459305	-2.486435
K	3.729355	-6.216088	-3.729653
K	8.701827	-3.729653	-1.243218
K	11.188064	-6.216088	-1.243218
K	6.215591	-3.729653	-3.729653
O	8.455914	-6.461794	-1.488924
O	3.483442	-3.483946	-3.483946
O	6.461504	-6.461794	-3.483946
O	5.969678	-3.975359	-0.997511
O	11.433976	-3.483946	-1.488924
O	5.969678	-0.997511	-3.975359
O	8.947740	-0.997511	-0.997511
O	8.947740	-3.975359	-3.975359
As	9.944945	0.000000	0.000000
As	12.431182	-2.486435	-2.486435
K	8.701827	-1.243218	-3.729653
K	13.674300	1.243218	-1.243218
K	16.160536	-1.243218	-1.243218
K	11.188064	1.243218	-3.729653
O	13.428387	-1.488924	-1.488924
O	8.455914	1.488924	-3.483946
O	11.433976	-1.488924	-3.483946
O	10.942151	0.997511	-0.997511
O	16.406449	1.488924	-1.488924
O	10.942151	3.975359	-3.975359
O	13.920213	3.975359	-0.997511
O	13.920213	0.997511	-3.975359
As	0.000000	-4.972870	-4.972870
As	2.486236	-7.459305	-7.459305
K	-1.243118	-6.216088	-8.702523
K	3.729355	-3.729653	-6.216088
K	6.215591	-6.216088	-6.216088
K	1.243118	-3.729653	-8.702523
O	3.483442	-6.461794	-6.461794
O	-1.489031	-3.483946	-8.456817
O	1.489031	-6.461794	-8.456817
O	0.997205	-3.975359	-5.970381
O	6.461504	-3.483946	-6.461794
O	0.997205	-0.997511	-8.948229
O	3.975267	-0.997511	-5.970381
O	3.975267	-3.975359	-8.948229
As	4.972473	0.000000	-4.972870
As	7.458709	-2.486435	-7.459305
K	3.729355	-1.243218	-8.702523
K	8.701827	1.243218	-6.216088
K	11.188064	-1.243218	-6.216088
K	6.215591	1.243218	-8.702523
O	8.455914	-1.488924	-6.461794
O	3.483442	1.488924	-8.456817
O	6.461504	-1.488924	-8.456817
O	5.969678	0.997511	-5.970381
O	11.433976	1.488924	-6.461794
O	5.969678	3.975359	-8.948229
O	8.947740	3.975359	-5.970381
O	8.947740	0.997511	-8.948229
