40

O	1.984675	1.984675	0.000000
O	1.984675	0.000000	1.984675
O	0.000000	1.984675	1.984675
Pu	0.000000	0.000000	0.000000
Tc	1.984675	1.984675	1.984675
O	1.984675	1.984675	3.969344
O	1.984675	0.000000	5.954019
O	0.000000	1.984675	5.954019
Pu	0.000000	0.000000	3.969344
Tc	1.984675	1.984675	5.954019
O	1.984675	5.954019	0.000000
O	1.984675	3.969344	1.984675
O	0.000000	5.954019	1.984675
Pu	0.000000	3.969344	0.000000
Tc	1.984675	5.954019	1.984675
O	1.984675	5.954019	3.969344
O	1.984675	3.969344	5.954019
O	0.000000	5.954019	5.954019
Pu	0.000000	3.969344	3.969344
Tc	1.984675	5.954019	5.954019
O	5.954019	1.984675	0.000000
O	5.954019	0.000000	1.984675
O	3.969344	1.984675	1.984675
Pu	3.969344	0.000000	0.000000
Tc	5.954019	1.984675	1.984675
O	5.954019	1.984675	3.969344
O	5.954019	0.000000	5.954019
O	3.969344	1.984675	5.954019
Pu	3.969344	0.000000	3.969344
Tc	5.954019	1.984675	5.954019
O	5.954019	5.954019	0.000000
O	5.954019	3.969344	1.984675
O	3.969344	5.954019	1.984675
Pu	3.969344	3.969344	0.000000
Tc	5.954019	5.954019	1.984675
O	5.954019	5.954019	3.969344
O	5.954019	3.969344	5.954019
O	3.969344	5.954019	5.954019
Pu	3.969344	3.969344	3.969344
Tc	5.954019	5.954019	5.954019
