40

O	0.000000	2.009286	2.009286
O	2.009286	0.000000	2.009286
O	2.009286	2.009286	0.000000
Pd	2.009286	2.009286	2.009286
Te	0.000000	0.000000	0.000000
O	0.000000	2.009286	6.027859
O	2.009286	0.000000	6.027859
O	2.009286	2.009286	4.018573
Pd	2.009286	2.009286	6.027859
Te	0.000000	0.000000	4.018573
O	0.000000	6.027859	2.009286
O	2.009286	4.018573	2.009286
O	2.009286	6.027859	0.000000
Pd	2.009286	6.027859	2.009286
Te	0.000000	4.018573	0.000000
O	0.000000	6.027859	6.027859
O	2.009286	4.018573	6.027859
O	2.009286	6.027859	4.018573
Pd	2.009286	6.027859	6.027859
Te	0.000000	4.018573	4.018573
O	4.018573	2.009286	2.009286
O	6.027859	0.000000	2.009286
O	6.027859	2.009286	0.000000
Pd	6.027859	2.009286	2.009286
Te	4.018573	0.000000	0.000000
O	4.018573	2.009286	6.027859
O	6.027859	0.000000	6.027859
O	6.027859	2.009286	4.018573
Pd	6.027859	2.009286	6.027859
Te	4.018573	0.000000	4.018573
O	4.018573	6.027859	2.009286
O	6.027859	4.018573	2.009286
O	6.027859	6.027859	0.000000
Pd	6.027859	6.027859	2.009286
Te	4.018573	4.018573	0.000000
O	4.018573	6.027859	6.027859
O	6.027859	4.018573	6.027859
O	6.027859	6.027859	4.018573
Pd	6.027859	6.027859	6.027859
Te	4.018573	4.018573	4.018573
