40

O	2.150982	2.150982	0.000000
O	2.150982	0.000000	2.150982
O	0.000000	2.150982	2.150982
Pa	0.000000	0.000000	0.000000
Tb	2.150982	2.150982	2.150982
O	2.150982	2.150982	4.301964
O	2.150982	0.000000	6.452946
O	0.000000	2.150982	6.452946
Pa	0.000000	0.000000	4.301964
Tb	2.150982	2.150982	6.452946
O	2.150982	6.452946	0.000000
O	2.150982	4.301964	2.150982
O	0.000000	6.452946	2.150982
Pa	0.000000	4.301964	0.000000
Tb	2.150982	6.452946	2.150982
O	2.150982	6.452946	4.301964
O	2.150982	4.301964	6.452946
O	0.000000	6.452946	6.452946
Pa	0.000000	4.301964	4.301964
Tb	2.150982	6.452946	6.452946
O	6.452946	2.150982	0.000000
O	6.452946	0.000000	2.150982
O	4.301964	2.150982	2.150982
Pa	4.301964	0.000000	0.000000
Tb	6.452946	2.150982	2.150982
O	6.452946	2.150982	4.301964
O	6.452946	0.000000	6.452946
O	4.301964	2.150982	6.452946
Pa	4.301964	0.000000	4.301964
Tb	6.452946	2.150982	6.452946
O	6.452946	6.452946	0.000000
O	6.452946	4.301964	2.150982
O	4.301964	6.452946	2.150982
Pa	4.301964	4.301964	0.000000
Tb	6.452946	6.452946	2.150982
O	6.452946	6.452946	4.301964
O	6.452946	4.301964	6.452946
O	4.301964	6.452946	6.452946
Pa	4.301964	4.301964	4.301964
Tb	6.452946	6.452946	6.452946
