40

Fe	1.926987	1.926987	1.926987
O	1.926987	1.926987	0.000000
O	1.926987	0.000000	1.926987
O	0.000000	1.926987	1.926987
Sn	0.000000	0.000000	0.000000
Fe	1.926987	1.926987	5.780964
O	1.926987	1.926987	3.853978
O	1.926987	0.000000	5.780964
O	0.000000	1.926987	5.780964
Sn	0.000000	0.000000	3.853978
Fe	1.926987	5.780964	1.926987
O	1.926987	5.780964	0.000000
O	1.926987	3.853978	1.926987
O	0.000000	5.780964	1.926987
Sn	0.000000	3.853978	0.000000
Fe	1.926987	5.780964	5.780964
O	1.926987	5.780964	3.853978
O	1.926987	3.853978	5.780964
O	0.000000	5.780964	5.780964
Sn	0.000000	3.853978	3.853978
Fe	5.780964	1.926987	1.926987
O	5.780964	1.926987	0.000000
O	5.780964	0.000000	1.926987
O	3.853978	1.926987	1.926987
Sn	3.853978	0.000000	0.000000
Fe	5.780964	1.926987	5.780964
O	5.780964	1.926987	3.853978
O	5.780964	0.000000	5.780964
O	3.853978	1.926987	5.780964
Sn	3.853978	0.000000	3.853978
Fe	5.780964	5.780964	1.926987
O	5.780964	5.780964	0.000000
O	5.780964	3.853978	1.926987
O	3.853978	5.780964	1.926987
Sn	3.853978	3.853978	0.000000
Fe	5.780964	5.780964	5.780964
O	5.780964	5.780964	3.853978
O	5.780964	3.853978	5.780964
O	3.853978	5.780964	5.780964
Sn	3.853978	3.853978	3.853978
