40

Ba	0.000000	0.000000	0.000000
N	1.962023	1.962023	1.962023
O	0.000000	1.962023	1.962023
O	1.962023	0.000000	1.962023
O	1.962023	1.962023	0.000000
Ba	0.000000	0.000000	3.924046
N	1.962023	1.962023	5.886069
O	0.000000	1.962023	5.886069
O	1.962023	0.000000	5.886069
O	1.962023	1.962023	3.924046
Ba	0.000000	3.924046	0.000000
N	1.962023	5.886069	1.962023
O	0.000000	5.886069	1.962023
O	1.962023	3.924046	1.962023
O	1.962023	5.886069	0.000000
Ba	0.000000	3.924046	3.924046
N	1.962023	5.886069	5.886069
O	0.000000	5.886069	5.886069
O	1.962023	3.924046	5.886069
O	1.962023	5.886069	3.924046
Ba	3.924046	0.000000	0.000000
N	5.886069	1.962023	1.962023
O	3.924046	1.962023	1.962023
O	5.886069	0.000000	1.962023
O	5.886069	1.962023	0.000000
Ba	3.924046	0.000000	3.924046
N	5.886069	1.962023	5.886069
O	3.924046	1.962023	5.886069
O	5.886069	0.000000	5.886069
O	5.886069	1.962023	3.924046
Ba	3.924046	3.924046	0.000000
N	5.886069	5.886069	1.962023
O	3.924046	5.886069	1.962023
O	5.886069	3.924046	1.962023
O	5.886069	5.886069	0.000000
Ba	3.924046	3.924046	3.924046
N	5.886069	5.886069	5.886069
O	3.924046	5.886069	5.886069
O	5.886069	3.924046	5.886069
O	5.886069	5.886069	3.924046
