40

N	1.745211	1.745211	1.745211
O	0.000000	1.745211	1.745211
O	1.745211	0.000000	1.745211
O	1.745211	1.745211	0.000000
Zn	0.000000	0.000000	0.000000
N	1.745211	1.745211	5.235632
O	0.000000	1.745211	5.235632
O	1.745211	0.000000	5.235632
O	1.745211	1.745211	3.490422
Zn	0.000000	0.000000	3.490422
N	1.745211	5.235632	1.745211
O	0.000000	5.235632	1.745211
O	1.745211	3.490422	1.745211
O	1.745211	5.235632	0.000000
Zn	0.000000	3.490422	0.000000
N	1.745211	5.235632	5.235632
O	0.000000	5.235632	5.235632
O	1.745211	3.490422	5.235632
O	1.745211	5.235632	3.490422
Zn	0.000000	3.490422	3.490422
N	5.235632	1.745211	1.745211
O	3.490422	1.745211	1.745211
O	5.235632	0.000000	1.745211
O	5.235632	1.745211	0.000000
Zn	3.490422	0.000000	0.000000
N	5.235632	1.745211	5.235632
O	3.490422	1.745211	5.235632
O	5.235632	0.000000	5.235632
O	5.235632	1.745211	3.490422
Zn	3.490422	0.000000	3.490422
N	5.235632	5.235632	1.745211
O	3.490422	5.235632	1.745211
O	5.235632	3.490422	1.745211
O	5.235632	5.235632	0.000000
Zn	3.490422	3.490422	0.000000
N	5.235632	5.235632	5.235632
O	3.490422	5.235632	5.235632
O	5.235632	3.490422	5.235632
O	5.235632	5.235632	3.490422
Zn	3.490422	3.490422	3.490422
