40

N	0.000000	0.000000	0.000000
O	0.000000	1.863786	1.863786
O	1.863786	0.000000	1.863786
O	1.863786	1.863786	0.000000
Zn	1.863786	1.863786	1.863786
N	0.000000	0.000000	3.727573
O	0.000000	1.863786	5.591359
O	1.863786	0.000000	5.591359
O	1.863786	1.863786	3.727573
Zn	1.863786	1.863786	5.591359
N	0.000000	3.727573	0.000000
O	0.000000	5.591359	1.863786
O	1.863786	3.727573	1.863786
O	1.863786	5.591359	0.000000
Zn	1.863786	5.591359	1.863786
N	0.000000	3.727573	3.727573
O	0.000000	5.591359	5.591359
O	1.863786	3.727573	5.591359
O	1.863786	5.591359	3.727573
Zn	1.863786	5.591359	5.591359
N	3.727573	0.000000	0.000000
O	3.727573	1.863786	1.863786
O	5.591359	0.000000	1.863786
O	5.591359	1.863786	0.000000
Zn	5.591359	1.863786	1.863786
N	3.727573	0.000000	3.727573
O	3.727573	1.863786	5.591359
O	5.591359	0.000000	5.591359
O	5.591359	1.863786	3.727573
Zn	5.591359	1.863786	5.591359
N	3.727573	3.727573	0.000000
O	3.727573	5.591359	1.863786
O	5.591359	3.727573	1.863786
O	5.591359	5.591359	0.000000
Zn	5.591359	5.591359	1.863786
N	3.727573	3.727573	3.727573
O	3.727573	5.591359	5.591359
O	5.591359	3.727573	5.591359
O	5.591359	5.591359	3.727573
Zn	5.591359	5.591359	5.591359
