40

Al	0.000000	0.000000	0.000000
O	1.950328	1.950328	0.000000
O	1.950328	0.000000	1.950328
O	0.000000	1.950328	1.950328
Rh	1.950328	1.950328	1.950328
Al	0.000000	0.000000	3.900656
O	1.950328	1.950328	3.900656
O	1.950328	0.000000	5.850984
O	0.000000	1.950328	5.850984
Rh	1.950328	1.950328	5.850984
Al	0.000000	3.900656	0.000000
O	1.950328	5.850984	0.000000
O	1.950328	3.900656	1.950328
O	0.000000	5.850984	1.950328
Rh	1.950328	5.850984	1.950328
Al	0.000000	3.900656	3.900656
O	1.950328	5.850984	3.900656
O	1.950328	3.900656	5.850984
O	0.000000	5.850984	5.850984
Rh	1.950328	5.850984	5.850984
Al	3.900656	0.000000	0.000000
O	5.850984	1.950328	0.000000
O	5.850984	0.000000	1.950328
O	3.900656	1.950328	1.950328
Rh	5.850984	1.950328	1.950328
Al	3.900656	0.000000	3.900656
O	5.850984	1.950328	3.900656
O	5.850984	0.000000	5.850984
O	3.900656	1.950328	5.850984
Rh	5.850984	1.950328	5.850984
Al	3.900656	3.900656	0.000000
O	5.850984	5.850984	0.000000
O	5.850984	3.900656	1.950328
O	3.900656	5.850984	1.950328
Rh	5.850984	5.850984	1.950328
Al	3.900656	3.900656	3.900656
O	5.850984	5.850984	3.900656
O	5.850984	3.900656	5.850984
O	3.900656	5.850984	5.850984
Rh	5.850984	5.850984	5.850984
