40

Fe	1.875770	1.875770	1.875770
O	1.875770	1.875770	0.000000
O	0.000000	1.875770	1.875770
O	1.875770	0.000000	1.875770
Si	0.000000	0.000000	0.000000
Fe	1.875770	1.875770	5.627293
O	1.875770	1.875770	3.751523
O	0.000000	1.875770	5.627293
O	1.875770	0.000000	5.627293
Si	0.000000	0.000000	3.751523
Fe	1.875770	5.627293	1.875770
O	1.875770	5.627293	0.000000
O	0.000000	5.627293	1.875770
O	1.875770	3.751523	1.875770
Si	0.000000	3.751523	0.000000
Fe	1.875770	5.627293	5.627293
O	1.875770	5.627293	3.751523
O	0.000000	5.627293	5.627293
O	1.875770	3.751523	5.627293
Si	0.000000	3.751523	3.751523
Fe	5.627293	1.875770	1.875770
O	5.627293	1.875770	0.000000
O	3.751523	1.875770	1.875770
O	5.627293	0.000000	1.875770
Si	3.751523	0.000000	0.000000
Fe	5.627293	1.875770	5.627293
O	5.627293	1.875770	3.751523
O	3.751523	1.875770	5.627293
O	5.627293	0.000000	5.627293
Si	3.751523	0.000000	3.751523
Fe	5.627293	5.627293	1.875770
O	5.627293	5.627293	0.000000
O	3.751523	5.627293	1.875770
O	5.627293	3.751523	1.875770
Si	3.751523	3.751523	0.000000
Fe	5.627293	5.627293	5.627293
O	5.627293	5.627293	3.751523
O	3.751523	5.627293	5.627293
O	5.627293	3.751523	5.627293
Si	3.751523	3.751523	3.751523
