40

O	1.986087	1.986087	0.000000
O	1.986087	0.000000	1.986087
O	0.000000	1.986087	1.986087
Pt	1.986087	1.986087	1.986087
Yb	0.000000	0.000000	0.000000
O	1.986087	1.986087	3.972175
O	1.986087	0.000000	5.958262
O	0.000000	1.986087	5.958262
Pt	1.986087	1.986087	5.958262
Yb	0.000000	0.000000	3.972175
O	1.986087	5.958262	0.000000
O	1.986087	3.972175	1.986087
O	0.000000	5.958262	1.986087
Pt	1.986087	5.958262	1.986087
Yb	0.000000	3.972175	0.000000
O	1.986087	5.958262	3.972175
O	1.986087	3.972175	5.958262
O	0.000000	5.958262	5.958262
Pt	1.986087	5.958262	5.958262
Yb	0.000000	3.972175	3.972175
O	5.958262	1.986087	0.000000
O	5.958262	0.000000	1.986087
O	3.972175	1.986087	1.986087
Pt	5.958262	1.986087	1.986087
Yb	3.972175	0.000000	0.000000
O	5.958262	1.986087	3.972175
O	5.958262	0.000000	5.958262
O	3.972175	1.986087	5.958262
Pt	5.958262	1.986087	5.958262
Yb	3.972175	0.000000	3.972175
O	5.958262	5.958262	0.000000
O	5.958262	3.972175	1.986087
O	3.972175	5.958262	1.986087
Pt	5.958262	5.958262	1.986087
Yb	3.972175	3.972175	0.000000
O	5.958262	5.958262	3.972175
O	5.958262	3.972175	5.958262
O	3.972175	5.958262	5.958262
Pt	5.958262	5.958262	5.958262
Yb	3.972175	3.972175	3.972175
