40

O	2.119562	2.119562	0.000000
O	2.119562	0.000000	2.119562
O	0.000000	2.119562	2.119562
Pt	0.000000	0.000000	0.000000
Yb	2.119562	2.119562	2.119562
O	2.119562	2.119562	4.239123
O	2.119562	0.000000	6.358685
O	0.000000	2.119562	6.358685
Pt	0.000000	0.000000	4.239123
Yb	2.119562	2.119562	6.358685
O	2.119562	6.358685	0.000000
O	2.119562	4.239123	2.119562
O	0.000000	6.358685	2.119562
Pt	0.000000	4.239123	0.000000
Yb	2.119562	6.358685	2.119562
O	2.119562	6.358685	4.239123
O	2.119562	4.239123	6.358685
O	0.000000	6.358685	6.358685
Pt	0.000000	4.239123	4.239123
Yb	2.119562	6.358685	6.358685
O	6.358685	2.119562	0.000000
O	6.358685	0.000000	2.119562
O	4.239123	2.119562	2.119562
Pt	4.239123	0.000000	0.000000
Yb	6.358685	2.119562	2.119562
O	6.358685	2.119562	4.239123
O	6.358685	0.000000	6.358685
O	4.239123	2.119562	6.358685
Pt	4.239123	0.000000	4.239123
Yb	6.358685	2.119562	6.358685
O	6.358685	6.358685	0.000000
O	6.358685	4.239123	2.119562
O	4.239123	6.358685	2.119562
Pt	4.239123	4.239123	0.000000
Yb	6.358685	6.358685	2.119562
O	6.358685	6.358685	4.239123
O	6.358685	4.239123	6.358685
O	4.239123	6.358685	6.358685
Pt	4.239123	4.239123	4.239123
Yb	6.358685	6.358685	6.358685
