40

N	1.808257	1.808257	1.808257
Na	0.000000	0.000000	0.000000
O	0.000000	1.808257	1.808257
O	1.808257	0.000000	1.808257
O	1.808257	1.808257	0.000000
N	1.808257	1.808257	5.424771
Na	0.000000	0.000000	3.616514
O	0.000000	1.808257	5.424771
O	1.808257	0.000000	5.424771
O	1.808257	1.808257	3.616514
N	1.808257	5.424771	1.808257
Na	0.000000	3.616514	0.000000
O	0.000000	5.424771	1.808257
O	1.808257	3.616514	1.808257
O	1.808257	5.424771	0.000000
N	1.808257	5.424771	5.424771
Na	0.000000	3.616514	3.616514
O	0.000000	5.424771	5.424771
O	1.808257	3.616514	5.424771
O	1.808257	5.424771	3.616514
N	5.424771	1.808257	1.808257
Na	3.616514	0.000000	0.000000
O	3.616514	1.808257	1.808257
O	5.424771	0.000000	1.808257
O	5.424771	1.808257	0.000000
N	5.424771	1.808257	5.424771
Na	3.616514	0.000000	3.616514
O	3.616514	1.808257	5.424771
O	5.424771	0.000000	5.424771
O	5.424771	1.808257	3.616514
N	5.424771	5.424771	1.808257
Na	3.616514	3.616514	0.000000
O	3.616514	5.424771	1.808257
O	5.424771	3.616514	1.808257
O	5.424771	5.424771	0.000000
N	5.424771	5.424771	5.424771
Na	3.616514	3.616514	3.616514
O	3.616514	5.424771	5.424771
O	5.424771	3.616514	5.424771
O	5.424771	5.424771	3.616514
