40

Na	0.000000	0.000000	0.000000
O	1.952489	1.952489	0.000000
O	1.952489	0.000000	1.952489
O	0.000000	1.952489	1.952489
Ti	1.952489	1.952489	1.952489
Na	0.000000	0.000000	3.904978
O	1.952489	1.952489	3.904978
O	1.952489	0.000000	5.857467
O	0.000000	1.952489	5.857467
Ti	1.952489	1.952489	5.857467
Na	0.000000	3.904978	0.000000
O	1.952489	5.857467	0.000000
O	1.952489	3.904978	1.952489
O	0.000000	5.857467	1.952489
Ti	1.952489	5.857467	1.952489
Na	0.000000	3.904978	3.904978
O	1.952489	5.857467	3.904978
O	1.952489	3.904978	5.857467
O	0.000000	5.857467	5.857467
Ti	1.952489	5.857467	5.857467
Na	3.904978	0.000000	0.000000
O	5.857467	1.952489	0.000000
O	5.857467	0.000000	1.952489
O	3.904978	1.952489	1.952489
Ti	5.857467	1.952489	1.952489
Na	3.904978	0.000000	3.904978
O	5.857467	1.952489	3.904978
O	5.857467	0.000000	5.857467
O	3.904978	1.952489	5.857467
Ti	5.857467	1.952489	5.857467
Na	3.904978	3.904978	0.000000
O	5.857467	5.857467	0.000000
O	5.857467	3.904978	1.952489
O	3.904978	5.857467	1.952489
Ti	5.857467	5.857467	1.952489
Na	3.904978	3.904978	3.904978
O	5.857467	5.857467	3.904978
O	5.857467	3.904978	5.857467
O	3.904978	5.857467	5.857467
Ti	5.857467	5.857467	5.857467
