40

Np	2.171120	2.171120	2.171120
O	2.171120	2.171120	0.000000
O	0.000000	2.171120	2.171120
O	2.171120	0.000000	2.171120
Rb	0.000000	0.000000	0.000000
Np	2.171120	2.171120	6.513361
O	2.171120	2.171120	4.342241
O	0.000000	2.171120	6.513361
O	2.171120	0.000000	6.513361
Rb	0.000000	0.000000	4.342241
Np	2.171120	6.513361	2.171120
O	2.171120	6.513361	0.000000
O	0.000000	6.513361	2.171120
O	2.171120	4.342241	2.171120
Rb	0.000000	4.342241	0.000000
Np	2.171120	6.513361	6.513361
O	2.171120	6.513361	4.342241
O	0.000000	6.513361	6.513361
O	2.171120	4.342241	6.513361
Rb	0.000000	4.342241	4.342241
Np	6.513361	2.171120	2.171120
O	6.513361	2.171120	0.000000
O	4.342241	2.171120	2.171120
O	6.513361	0.000000	2.171120
Rb	4.342241	0.000000	0.000000
Np	6.513361	2.171120	6.513361
O	6.513361	2.171120	4.342241
O	4.342241	2.171120	6.513361
O	6.513361	0.000000	6.513361
Rb	4.342241	0.000000	4.342241
Np	6.513361	6.513361	2.171120
O	6.513361	6.513361	0.000000
O	4.342241	6.513361	2.171120
O	6.513361	4.342241	2.171120
Rb	4.342241	4.342241	0.000000
Np	6.513361	6.513361	6.513361
O	6.513361	6.513361	4.342241
O	4.342241	6.513361	6.513361
O	6.513361	4.342241	6.513361
Rb	4.342241	4.342241	4.342241
