40

O	0.000000	2.300058	2.300058
O	2.300058	0.000000	2.300058
O	2.300058	2.300058	0.000000
Ba	0.000000	0.000000	0.000000
Th	2.300058	2.300058	2.300058
O	0.000000	2.300058	6.900173
O	2.300058	0.000000	6.900173
O	2.300058	2.300058	4.600115
Ba	0.000000	0.000000	4.600115
Th	2.300058	2.300058	6.900173
O	0.000000	6.900173	2.300058
O	2.300058	4.600115	2.300058
O	2.300058	6.900173	0.000000
Ba	0.000000	4.600115	0.000000
Th	2.300058	6.900173	2.300058
O	0.000000	6.900173	6.900173
O	2.300058	4.600115	6.900173
O	2.300058	6.900173	4.600115
Ba	0.000000	4.600115	4.600115
Th	2.300058	6.900173	6.900173
O	4.600115	2.300058	2.300058
O	6.900173	0.000000	2.300058
O	6.900173	2.300058	0.000000
Ba	4.600115	0.000000	0.000000
Th	6.900173	2.300058	2.300058
O	4.600115	2.300058	6.900173
O	6.900173	0.000000	6.900173
O	6.900173	2.300058	4.600115
Ba	4.600115	0.000000	4.600115
Th	6.900173	2.300058	6.900173
O	4.600115	6.900173	2.300058
O	6.900173	4.600115	2.300058
O	6.900173	6.900173	0.000000
Ba	4.600115	4.600115	0.000000
Th	6.900173	6.900173	2.300058
O	4.600115	6.900173	6.900173
O	6.900173	4.600115	6.900173
O	6.900173	6.900173	4.600115
Ba	4.600115	4.600115	4.600115
Th	6.900173	6.900173	6.900173
