40

Ca	2.140170	2.140170	2.140170
Co	0.000000	0.000000	0.000000
O	0.000000	2.140170	2.140170
O	2.140170	0.000000	2.140170
O	2.140170	2.140170	0.000000
Ca	2.140170	2.140170	6.420509
Co	0.000000	0.000000	4.280339
O	0.000000	2.140170	6.420509
O	2.140170	0.000000	6.420509
O	2.140170	2.140170	4.280339
Ca	2.140170	6.420509	2.140170
Co	0.000000	4.280339	0.000000
O	0.000000	6.420509	2.140170
O	2.140170	4.280339	2.140170
O	2.140170	6.420509	0.000000
Ca	2.140170	6.420509	6.420509
Co	0.000000	4.280339	4.280339
O	0.000000	6.420509	6.420509
O	2.140170	4.280339	6.420509
O	2.140170	6.420509	4.280339
Ca	6.420509	2.140170	2.140170
Co	4.280339	0.000000	0.000000
O	4.280339	2.140170	2.140170
O	6.420509	0.000000	2.140170
O	6.420509	2.140170	0.000000
Ca	6.420509	2.140170	6.420509
Co	4.280339	0.000000	4.280339
O	4.280339	2.140170	6.420509
O	6.420509	0.000000	6.420509
O	6.420509	2.140170	4.280339
Ca	6.420509	6.420509	2.140170
Co	4.280339	4.280339	0.000000
O	4.280339	6.420509	2.140170
O	6.420509	4.280339	2.140170
O	6.420509	6.420509	0.000000
Ca	6.420509	6.420509	6.420509
Co	4.280339	4.280339	4.280339
O	4.280339	6.420509	6.420509
O	6.420509	4.280339	6.420509
O	6.420509	6.420509	4.280339
