40

Fe	0.000000	0.000000	0.000000
O	0.000000	2.027094	2.027094
O	2.027094	0.000000	2.027094
O	2.027094	2.027094	0.000000
Sc	2.027094	2.027094	2.027094
Fe	0.000000	0.000000	4.054187
O	0.000000	2.027094	6.081281
O	2.027094	0.000000	6.081281
O	2.027094	2.027094	4.054187
Sc	2.027094	2.027094	6.081281
Fe	0.000000	4.054187	0.000000
O	0.000000	6.081281	2.027094
O	2.027094	4.054187	2.027094
O	2.027094	6.081281	0.000000
Sc	2.027094	6.081281	2.027094
Fe	0.000000	4.054187	4.054187
O	0.000000	6.081281	6.081281
O	2.027094	4.054187	6.081281
O	2.027094	6.081281	4.054187
Sc	2.027094	6.081281	6.081281
Fe	4.054187	0.000000	0.000000
O	4.054187	2.027094	2.027094
O	6.081281	0.000000	2.027094
O	6.081281	2.027094	0.000000
Sc	6.081281	2.027094	2.027094
Fe	4.054187	0.000000	4.054187
O	4.054187	2.027094	6.081281
O	6.081281	0.000000	6.081281
O	6.081281	2.027094	4.054187
Sc	6.081281	2.027094	6.081281
Fe	4.054187	4.054187	0.000000
O	4.054187	6.081281	2.027094
O	6.081281	4.054187	2.027094
O	6.081281	6.081281	0.000000
Sc	6.081281	6.081281	2.027094
Fe	4.054187	4.054187	4.054187
O	4.054187	6.081281	6.081281
O	6.081281	4.054187	6.081281
O	6.081281	6.081281	4.054187
Sc	6.081281	6.081281	6.081281
