40

Cr	1.892353	1.892353	1.892353
O	0.000000	1.892353	1.892353
O	1.892353	0.000000	1.892353
O	1.892353	1.892353	0.000000
Se	0.000000	0.000000	0.000000
Cr	1.892353	1.892353	5.677058
O	0.000000	1.892353	5.677058
O	1.892353	0.000000	5.677058
O	1.892353	1.892353	3.784705
Se	0.000000	0.000000	3.784705
Cr	1.892353	5.677058	1.892353
O	0.000000	5.677058	1.892353
O	1.892353	3.784705	1.892353
O	1.892353	5.677058	0.000000
Se	0.000000	3.784705	0.000000
Cr	1.892353	5.677058	5.677058
O	0.000000	5.677058	5.677058
O	1.892353	3.784705	5.677058
O	1.892353	5.677058	3.784705
Se	0.000000	3.784705	3.784705
Cr	5.677058	1.892353	1.892353
O	3.784705	1.892353	1.892353
O	5.677058	0.000000	1.892353
O	5.677058	1.892353	0.000000
Se	3.784705	0.000000	0.000000
Cr	5.677058	1.892353	5.677058
O	3.784705	1.892353	5.677058
O	5.677058	0.000000	5.677058
O	5.677058	1.892353	3.784705
Se	3.784705	0.000000	3.784705
Cr	5.677058	5.677058	1.892353
O	3.784705	5.677058	1.892353
O	5.677058	3.784705	1.892353
O	5.677058	5.677058	0.000000
Se	3.784705	3.784705	0.000000
Cr	5.677058	5.677058	5.677058
O	3.784705	5.677058	5.677058
O	5.677058	3.784705	5.677058
O	5.677058	5.677058	3.784705
Se	3.784705	3.784705	3.784705
