440

Ca	2.250901	2.318682	2.318682
Ca	4.569583	0.000000	4.569583
Ca	2.250901	6.820484	6.820484
Ca	4.569583	4.569583	0.000000
Ca	6.888265	2.318682	6.820484
Ca	0.000000	0.000000	0.000000
Ca	6.888265	6.820484	2.318682
Sc	1.131929	7.988290	3.437654
Sc	3.425859	1.143724	7.995442
Sc	3.418707	3.437654	5.701512
Sc	1.131929	1.150876	5.701512
Sc	1.131929	3.437654	7.988290
Sc	3.418707	5.701512	3.437654
Sc	3.425859	7.995442	1.143724
Sc	1.131929	5.701512	1.150876
Sc	5.713307	7.995442	7.995442
Sc	8.007237	1.150876	3.437654
Sc	8.007237	3.437654	1.150876
Sc	5.713307	1.143724	1.143724
Sc	5.720459	3.437654	3.437654
Sc	8.007237	5.701512	7.988290
Sc	8.007237	7.988290	5.701512
Sc	5.720459	5.701512	5.701512
O	3.567180	1.002403	1.002403
O	5.552902	3.573701	5.565464
O	5.571986	1.002403	8.136763
O	3.586264	3.573701	3.573701
O	3.281867	1.287716	5.858086
O	1.288503	7.851450	1.287716
O	1.288503	1.287716	7.851450
O	3.281867	7.851450	3.281080
O	3.586264	5.565464	5.565464
O	5.571986	8.136763	1.002403
O	5.552902	5.565464	3.573701
O	3.567180	8.136763	8.136763
O	3.281867	5.858086	1.287716
O	1.339065	3.230518	5.908647
O	1.339065	5.908647	3.230518
O	3.281867	3.281080	7.851450
O	8.143284	0.983319	5.565464
O	0.995881	3.573701	0.983319
O	0.995881	0.983319	3.573701
O	8.143284	3.573701	8.155847
O	7.850663	1.287716	1.287716
O	5.857299	7.851450	5.858086
O	5.857299	1.287716	3.281080
O	7.850663	7.851450	7.851450
O	8.143284	5.565464	0.983319
O	0.995881	8.155847	5.565464
O	0.995881	5.565464	8.155847
O	8.143284	8.155847	3.573701
O	7.800101	5.908647	5.908647
O	5.857299	3.281080	1.287716
O	5.857299	5.858086	7.851450
O	7.800101	3.230518	3.230518
Ca	2.250901	2.318682	11.457848
Ca	4.569583	0.000000	13.708749
Ca	2.250901	6.820484	15.959649
Ca	4.569583	4.569583	9.139166
Ca	6.888265	2.318682	15.959649
Ca	0.000000	0.000000	9.139166
Ca	6.888265	6.820484	11.457848
Sc	1.131929	7.988290	12.576820
Sc	3.425859	1.143724	17.134608
Sc	3.418707	3.437654	14.840678
Sc	1.131929	1.150876	14.840678
Sc	1.131929	3.437654	17.127456
Sc	3.418707	5.701512	12.576820
Sc	3.425859	7.995442	10.282890
Sc	1.131929	5.701512	10.290042
Sc	5.713307	7.995442	17.134608
Sc	8.007237	1.150876	12.576820
Sc	8.007237	3.437654	10.290042
Sc	5.713307	1.143724	10.282890
Sc	5.720459	3.437654	12.576820
Sc	8.007237	5.701512	17.127456
Sc	8.007237	7.988290	14.840678
Sc	5.720459	5.701512	14.840678
O	3.567180	1.002403	10.141569
O	5.552902	3.573701	14.704630
O	5.571986	1.002403	17.275928
O	3.586264	3.573701	12.712867
O	3.281867	1.287716	14.997252
O	1.288503	7.851450	10.426882
O	1.288503	1.287716	16.990616
O	3.281867	7.851450	12.420246
O	3.586264	5.565464	14.704630
O	5.571986	8.136763	10.141569
O	5.552902	5.565464	12.712867
O	3.567180	8.136763	17.275928
O	3.281867	5.858086	10.426882
O	1.339065	3.230518	15.047813
O	1.339065	5.908647	12.369684
O	3.281867	3.281080	16.990616
O	8.143284	0.983319	14.704630
O	0.995881	3.573701	10.122485
O	0.995881	0.983319	12.712867
O	8.143284	3.573701	17.295013
O	7.850663	1.287716	10.426882
O	5.857299	7.851450	14.997252
O	5.857299	1.287716	12.420246
O	7.850663	7.851450	16.990616
O	8.143284	5.565464	10.122485
O	0.995881	8.155847	14.704630
O	0.995881	5.565464	17.295013
O	8.143284	8.155847	12.712867
O	7.800101	5.908647	15.047813
O	5.857299	3.281080	10.426882
O	5.857299	5.858086	16.990616
O	7.800101	3.230518	12.369684
Ca	2.250901	11.457848	2.318682
Ca	4.569583	9.139166	4.569583
Ca	2.250901	15.959649	6.820484
Ca	4.569583	13.708749	0.000000
Ca	6.888265	11.457848	6.820484
Ca	0.000000	9.139166	0.000000
Ca	6.888265	15.959649	2.318682
Sc	1.131929	17.127456	3.437654
Sc	3.425859	10.282890	7.995442
Sc	3.418707	12.576820	5.701512
Sc	1.131929	10.290042	5.701512
Sc	1.131929	12.576820	7.988290
Sc	3.418707	14.840678	3.437654
Sc	3.425859	17.134608	1.143724
Sc	1.131929	14.840678	1.150876
Sc	5.713307	17.134608	7.995442
Sc	8.007237	10.290042	3.437654
Sc	8.007237	12.576820	1.150876
Sc	5.713307	10.282890	1.143724
Sc	5.720459	12.576820	3.437654
Sc	8.007237	14.840678	7.988290
Sc	8.007237	17.127456	5.701512
Sc	5.720459	14.840678	5.701512
O	3.567180	10.141569	1.002403
O	5.552902	12.712867	5.565464
O	5.571986	10.141569	8.136763
O	3.586264	12.712867	3.573701
O	3.281867	10.426882	5.858086
O	1.288503	16.990616	1.287716
O	1.288503	10.426882	7.851450
O	3.281867	16.990616	3.281080
O	3.586264	14.704630	5.565464
O	5.571986	17.275928	1.002403
O	5.552902	14.704630	3.573701
O	3.567180	17.275928	8.136763
O	3.281867	14.997252	1.287716
O	1.339065	12.369684	5.908647
O	1.339065	15.047813	3.230518
O	3.281867	12.420246	7.851450
O	8.143284	10.122485	5.565464
O	0.995881	12.712867	0.983319
O	0.995881	10.122485	3.573701
O	8.143284	12.712867	8.155847
O	7.850663	10.426882	1.287716
O	5.857299	16.990616	5.858086
O	5.857299	10.426882	3.281080
O	7.850663	16.990616	7.851450
O	8.143284	14.704630	0.983319
O	0.995881	17.295013	5.565464
O	0.995881	14.704630	8.155847
O	8.143284	17.295013	3.573701
O	7.800101	15.047813	5.908647
O	5.857299	12.420246	1.287716
O	5.857299	14.997252	7.851450
O	7.800101	12.369684	3.230518
Ca	2.250901	11.457848	11.457848
Ca	4.569583	9.139166	13.708749
Ca	2.250901	15.959649	15.959649
Ca	4.569583	13.708749	9.139166
Ca	6.888265	11.457848	15.959649
Ca	0.000000	9.139166	9.139166
Ca	6.888265	15.959649	11.457848
Sc	1.131929	17.127456	12.576820
Sc	3.425859	10.282890	17.134608
Sc	3.418707	12.576820	14.840678
Sc	1.131929	10.290042	14.840678
Sc	1.131929	12.576820	17.127456
Sc	3.418707	14.840678	12.576820
Sc	3.425859	17.134608	10.282890
Sc	1.131929	14.840678	10.290042
Sc	5.713307	17.134608	17.134608
Sc	8.007237	10.290042	12.576820
Sc	8.007237	12.576820	10.290042
Sc	5.713307	10.282890	10.282890
Sc	5.720459	12.576820	12.576820
Sc	8.007237	14.840678	17.127456
Sc	8.007237	17.127456	14.840678
Sc	5.720459	14.840678	14.840678
O	3.567180	10.141569	10.141569
O	5.552902	12.712867	14.704630
O	5.571986	10.141569	17.275928
O	3.586264	12.712867	12.712867
O	3.281867	10.426882	14.997252
O	1.288503	16.990616	10.426882
O	1.288503	10.426882	16.990616
O	3.281867	16.990616	12.420246
O	3.586264	14.704630	14.704630
O	5.571986	17.275928	10.141569
O	5.552902	14.704630	12.712867
O	3.567180	17.275928	17.275928
O	3.281867	14.997252	10.426882
O	1.339065	12.369684	15.047813
O	1.339065	15.047813	12.369684
O	3.281867	12.420246	16.990616
O	8.143284	10.122485	14.704630
O	0.995881	12.712867	10.122485
O	0.995881	10.122485	12.712867
O	8.143284	12.712867	17.295013
O	7.850663	10.426882	10.426882
O	5.857299	16.990616	14.997252
O	5.857299	10.426882	12.420246
O	7.850663	16.990616	16.990616
O	8.143284	14.704630	10.122485
O	0.995881	17.295013	14.704630
O	0.995881	14.704630	17.295013
O	8.143284	17.295013	12.712867
O	7.800101	15.047813	15.047813
O	5.857299	12.420246	10.426882
O	5.857299	14.997252	16.990616
O	7.800101	12.369684	12.369684
Ca	11.390066	2.318682	2.318682
Ca	13.708749	0.000000	4.569583
Ca	11.390066	6.820484	6.820484
Ca	13.708749	4.569583	0.000000
Ca	16.027431	2.318682	6.820484
Ca	9.139166	0.000000	0.000000
Ca	16.027431	6.820484	2.318682
Sc	10.271095	7.988290	3.437654
Sc	12.565025	1.143724	7.995442
Sc	12.557873	3.437654	5.701512
Sc	10.271095	1.150876	5.701512
Sc	10.271095	3.437654	7.988290
Sc	12.557873	5.701512	3.437654
Sc	12.565025	7.995442	1.143724
Sc	10.271095	5.701512	1.150876
Sc	14.852473	7.995442	7.995442
Sc	17.146403	1.150876	3.437654
Sc	17.146403	3.437654	1.150876
Sc	14.852473	1.143724	1.143724
Sc	14.859625	3.437654	3.437654
Sc	17.146403	5.701512	7.988290
Sc	17.146403	7.988290	5.701512
Sc	14.859625	5.701512	5.701512
O	12.706345	1.002403	1.002403
O	14.692068	3.573701	5.565464
O	14.711152	1.002403	8.136763
O	12.725430	3.573701	3.573701
O	12.421033	1.287716	5.858086
O	10.427669	7.851450	1.287716
O	10.427669	1.287716	7.851450
O	12.421033	7.851450	3.281080
O	12.725430	5.565464	5.565464
O	14.711152	8.136763	1.002403
O	14.692068	5.565464	3.573701
O	12.706345	8.136763	8.136763
O	12.421033	5.858086	1.287716
O	10.478230	3.230518	5.908647
O	10.478230	5.908647	3.230518
O	12.421033	3.281080	7.851450
O	17.282450	0.983319	5.565464
O	10.135047	3.573701	0.983319
O	10.135047	0.983319	3.573701
O	17.282450	3.573701	8.155847
O	16.989829	1.287716	1.287716
O	14.996465	7.851450	5.858086
O	14.996465	1.287716	3.281080
O	16.989829	7.851450	7.851450
O	17.282450	5.565464	0.983319
O	10.135047	8.155847	5.565464
O	10.135047	5.565464	8.155847
O	17.282450	8.155847	3.573701
O	16.939267	5.908647	5.908647
O	14.996465	3.281080	1.287716
O	14.996465	5.858086	7.851450
O	16.939267	3.230518	3.230518
Ca	11.390066	2.318682	11.457848
Ca	13.708749	0.000000	13.708749
Ca	11.390066	6.820484	15.959649
Ca	13.708749	4.569583	9.139166
Ca	16.027431	2.318682	15.959649
Ca	9.139166	0.000000	9.139166
Ca	16.027431	6.820484	11.457848
Sc	10.271095	7.988290	12.576820
Sc	12.565025	1.143724	17.134608
Sc	12.557873	3.437654	14.840678
Sc	10.271095	1.150876	14.840678
Sc	10.271095	3.437654	17.127456
Sc	12.557873	5.701512	12.576820
Sc	12.565025	7.995442	10.282890
Sc	10.271095	5.701512	10.290042
Sc	14.852473	7.995442	17.134608
Sc	17.146403	1.150876	12.576820
Sc	17.146403	3.437654	10.290042
Sc	14.852473	1.143724	10.282890
Sc	14.859625	3.437654	12.576820
Sc	17.146403	5.701512	17.127456
Sc	17.146403	7.988290	14.840678
Sc	14.859625	5.701512	14.840678
O	12.706345	1.002403	10.141569
O	14.692068	3.573701	14.704630
O	14.711152	1.002403	17.275928
O	12.725430	3.573701	12.712867
O	12.421033	1.287716	14.997252
O	10.427669	7.851450	10.426882
O	10.427669	1.287716	16.990616
O	12.421033	7.851450	12.420246
O	12.725430	5.565464	14.704630
O	14.711152	8.136763	10.141569
O	14.692068	5.565464	12.712867
O	12.706345	8.136763	17.275928
O	12.421033	5.858086	10.426882
O	10.478230	3.230518	15.047813
O	10.478230	5.908647	12.369684
O	12.421033	3.281080	16.990616
O	17.282450	0.983319	14.704630
O	10.135047	3.573701	10.122485
O	10.135047	0.983319	12.712867
O	17.282450	3.573701	17.295013
O	16.989829	1.287716	10.426882
O	14.996465	7.851450	14.997252
O	14.996465	1.287716	12.420246
O	16.989829	7.851450	16.990616
O	17.282450	5.565464	10.122485
O	10.135047	8.155847	14.704630
O	10.135047	5.565464	17.295013
O	17.282450	8.155847	12.712867
O	16.939267	5.908647	15.047813
O	14.996465	3.281080	10.426882
O	14.996465	5.858086	16.990616
O	16.939267	3.230518	12.369684
Ca	11.390066	11.457848	2.318682
Ca	13.708749	9.139166	4.569583
Ca	11.390066	15.959649	6.820484
Ca	13.708749	13.708749	0.000000
Ca	16.027431	11.457848	6.820484
Ca	9.139166	9.139166	0.000000
Ca	16.027431	15.959649	2.318682
Sc	10.271095	17.127456	3.437654
Sc	12.565025	10.282890	7.995442
Sc	12.557873	12.576820	5.701512
Sc	10.271095	10.290042	5.701512
Sc	10.271095	12.576820	7.988290
Sc	12.557873	14.840678	3.437654
Sc	12.565025	17.134608	1.143724
Sc	10.271095	14.840678	1.150876
Sc	14.852473	17.134608	7.995442
Sc	17.146403	10.290042	3.437654
Sc	17.146403	12.576820	1.150876
Sc	14.852473	10.282890	1.143724
Sc	14.859625	12.576820	3.437654
Sc	17.146403	14.840678	7.988290
Sc	17.146403	17.127456	5.701512
Sc	14.859625	14.840678	5.701512
O	12.706345	10.141569	1.002403
O	14.692068	12.712867	5.565464
O	14.711152	10.141569	8.136763
O	12.725430	12.712867	3.573701
O	12.421033	10.426882	5.858086
O	10.427669	16.990616	1.287716
O	10.427669	10.426882	7.851450
O	12.421033	16.990616	3.281080
O	12.725430	14.704630	5.565464
O	14.711152	17.275928	1.002403
O	14.692068	14.704630	3.573701
O	12.706345	17.275928	8.136763
O	12.421033	14.997252	1.287716
O	10.478230	12.369684	5.908647
O	10.478230	15.047813	3.230518
O	12.421033	12.420246	7.851450
O	17.282450	10.122485	5.565464
O	10.135047	12.712867	0.983319
O	10.135047	10.122485	3.573701
O	17.282450	12.712867	8.155847
O	16.989829	10.426882	1.287716
O	14.996465	16.990616	5.858086
O	14.996465	10.426882	3.281080
O	16.989829	16.990616	7.851450
O	17.282450	14.704630	0.983319
O	10.135047	17.295013	5.565464
O	10.135047	14.704630	8.155847
O	17.282450	17.295013	3.573701
O	16.939267	15.047813	5.908647
O	14.996465	12.420246	1.287716
O	14.996465	14.997252	7.851450
O	16.939267	12.369684	3.230518
Ca	11.390066	11.457848	11.457848
Ca	13.708749	9.139166	13.708749
Ca	11.390066	15.959649	15.959649
Ca	13.708749	13.708749	9.139166
Ca	16.027431	11.457848	15.959649
Ca	9.139166	9.139166	9.139166
Ca	16.027431	15.959649	11.457848
Sc	10.271095	17.127456	12.576820
Sc	12.565025	10.282890	17.134608
Sc	12.557873	12.576820	14.840678
Sc	10.271095	10.290042	14.840678
Sc	10.271095	12.576820	17.127456
Sc	12.557873	14.840678	12.576820
Sc	12.565025	17.134608	10.282890
Sc	10.271095	14.840678	10.290042
Sc	14.852473	17.134608	17.134608
Sc	17.146403	10.290042	12.576820
Sc	17.146403	12.576820	10.290042
Sc	14.852473	10.282890	10.282890
Sc	14.859625	12.576820	12.576820
Sc	17.146403	14.840678	17.127456
Sc	17.146403	17.127456	14.840678
Sc	14.859625	14.840678	14.840678
O	12.706345	10.141569	10.141569
O	14.692068	12.712867	14.704630
O	14.711152	10.141569	17.275928
O	12.725430	12.712867	12.712867
O	12.421033	10.426882	14.997252
O	10.427669	16.990616	10.426882
O	10.427669	10.426882	16.990616
O	12.421033	16.990616	12.420246
O	12.725430	14.704630	14.704630
O	14.711152	17.275928	10.141569
O	14.692068	14.704630	12.712867
O	12.706345	17.275928	17.275928
O	12.421033	14.997252	10.426882
O	10.478230	12.369684	15.047813
O	10.478230	15.047813	12.369684
O	12.421033	12.420246	16.990616
O	17.282450	10.122485	14.704630
O	10.135047	12.712867	10.122485
O	10.135047	10.122485	12.712867
O	17.282450	12.712867	17.295013
O	16.989829	10.426882	10.426882
O	14.996465	16.990616	14.997252
O	14.996465	10.426882	12.420246
O	16.989829	16.990616	16.990616
O	17.282450	14.704630	10.122485
O	10.135047	17.295013	14.704630
O	10.135047	14.704630	17.295013
O	17.282450	17.295013	12.712867
O	16.939267	15.047813	15.047813
O	14.996465	12.420246	10.426882
O	14.996465	14.997252	16.990616
O	16.939267	12.369684	12.369684
