112

K	0.000000	0.000000	0.000000
K	2.279124	-2.276323	-2.276323
O	-0.906174	0.902706	-3.649939
O	3.652084	-0.902706	-0.902706
O	0.906174	-0.902706	-3.649939
O	1.372950	1.373617	-1.373617
O	5.464432	0.902706	-0.902706
O	1.372950	3.179029	-3.179029
O	3.185308	3.179029	-1.373617
O	3.185308	1.373617	-3.179029
Zn	-1.139567	-1.138161	-3.414484
Zn	5.697815	-1.138161	-1.138161
Zn	3.418691	1.138161	-1.138161
Zn	1.139567	1.138161	-3.414484
K	4.558255	4.552647	0.000000
K	6.837379	2.276324	-2.276323
O	3.652081	5.455353	-3.649939
O	8.210339	3.649941	-0.902706
O	5.464430	3.649941	-3.649939
O	5.931205	5.926263	-1.373617
O	10.022687	5.455353	-0.902706
O	5.931205	7.731676	-3.179029
O	7.743563	7.731676	-1.373617
O	7.743563	5.926263	-3.179029
Zn	3.418688	3.414485	-3.414484
Zn	10.256070	3.414485	-1.138161
Zn	7.976946	5.690808	-1.138161
Zn	5.697822	5.690808	-3.414484
K	-4.558255	0.000000	-4.552647
K	-2.279131	-2.276323	-6.828970
O	-5.464430	0.902706	-8.202586
O	-0.906172	-0.902706	-5.455353
O	-3.652081	-0.902706	-8.202586
O	-3.185306	1.373617	-5.926263
O	0.906177	0.902706	-5.455353
O	-3.185306	3.179029	-7.731676
O	-1.372947	3.179029	-5.926263
O	-1.372947	1.373617	-7.731676
Zn	-5.697822	-1.138161	-7.967131
Zn	1.139560	-1.138161	-5.690808
Zn	-1.139564	1.138161	-5.690808
Zn	-3.418688	1.138161	-7.967131
K	0.000000	4.552647	-4.552647
K	2.279124	2.276324	-6.828970
O	-0.906174	5.455353	-8.202586
O	3.652084	3.649941	-5.455353
O	0.906174	3.649941	-8.202586
O	1.372950	5.926263	-5.926263
O	5.464432	5.455353	-5.455353
O	1.372950	7.731676	-7.731676
O	3.185308	7.731676	-5.926263
O	3.185308	5.926263	-7.731676
Zn	-1.139567	3.414485	-7.967131
Zn	5.697815	3.414485	-5.690808
Zn	3.418691	5.690808	-5.690808
Zn	1.139567	5.690808	-7.967131
K	4.558255	-4.552647	0.000000
K	6.837379	-6.828970	-2.276323
O	3.652081	-3.649941	-3.649939
O	8.210339	-5.455353	-0.902706
O	5.464430	-5.455353	-3.649939
O	5.931205	-3.179030	-1.373617
O	10.022687	-3.649941	-0.902706
O	5.931205	-1.373618	-3.179029
O	7.743563	-1.373618	-1.373617
O	7.743563	-3.179030	-3.179029
Zn	3.418688	-5.690808	-3.414484
Zn	10.256070	-5.690808	-1.138161
Zn	7.976946	-3.414485	-1.138161
Zn	5.697822	-3.414485	-3.414484
K	9.116511	0.000000	0.000000
K	11.395635	-2.276323	-2.276323
O	8.210336	0.902706	-3.649939
O	12.768594	-0.902706	-0.902706
O	10.022685	-0.902706	-3.649939
O	10.489460	1.373617	-1.373617
O	14.580943	0.902706	-0.902706
O	10.489460	3.179029	-3.179029
O	12.301819	3.179029	-1.373617
O	12.301819	1.373617	-3.179029
Zn	7.976944	-1.138161	-3.414484
Zn	14.814325	-1.138161	-1.138161
Zn	12.535201	1.138161	-1.138161
Zn	10.256077	1.138161	-3.414484
K	0.000000	-4.552647	-4.552647
K	2.279124	-6.828970	-6.828970
O	-0.906174	-3.649941	-8.202586
O	3.652084	-5.455353	-5.455353
O	0.906174	-5.455353	-8.202586
O	1.372950	-3.179030	-5.926263
O	5.464432	-3.649941	-5.455353
O	1.372950	-1.373618	-7.731676
O	3.185308	-1.373618	-5.926263
O	3.185308	-3.179030	-7.731676
Zn	-1.139567	-5.690808	-7.967131
Zn	5.697815	-5.690808	-5.690808
Zn	3.418691	-3.414485	-5.690808
Zn	1.139567	-3.414485	-7.967131
K	4.558255	0.000000	-4.552647
K	6.837379	-2.276323	-6.828970
O	3.652081	0.902706	-8.202586
O	8.210339	-0.902706	-5.455353
O	5.464430	-0.902706	-8.202586
O	5.931205	1.373617	-5.926263
O	10.022687	0.902706	-5.455353
O	5.931205	3.179029	-7.731676
O	7.743563	3.179029	-5.926263
O	7.743563	1.373617	-7.731676
Zn	3.418688	-1.138161	-7.967131
Zn	10.256070	-1.138161	-5.690808
Zn	7.976946	1.138161	-5.690808
Zn	5.697822	1.138161	-7.967131
