112

K	0.000000	0.000000	0.000000
K	2.310654	-2.308861	-2.308861
O	3.710385	-0.908499	-0.908499
O	-0.910922	0.908499	-3.709223
O	0.910922	-0.908499	-3.709223
O	1.399732	1.400362	-1.400362
O	5.532229	0.908499	-0.908499
O	1.399732	3.217359	-3.217359
O	3.221576	3.217359	-1.400362
O	3.221576	1.400362	-3.217359
Zn	-1.155327	-1.154430	-3.463291
Zn	3.465981	1.154430	-1.154430
Zn	5.776634	-1.154430	-1.154430
Zn	1.155327	1.154430	-3.463291
K	4.621307	4.617721	0.000000
K	6.931961	2.308861	-2.308861
O	8.331693	3.709223	-0.908499
O	3.710385	5.526220	-3.709223
O	5.532229	3.709223	-3.709223
O	6.021039	6.018083	-1.400362
O	10.153537	5.526220	-0.908499
O	6.021039	7.835080	-3.217359
O	7.842883	7.835080	-1.400362
O	7.842883	6.018083	-3.217359
Zn	3.465981	3.463291	-3.463291
Zn	8.087288	5.772152	-1.154430
Zn	10.397942	3.463291	-1.154430
Zn	5.776634	5.772152	-3.463291
K	-4.621307	0.000000	-4.617721
K	-2.310654	-2.308861	-6.926582
O	-0.910922	-0.908499	-5.526220
O	-5.532229	0.908499	-8.326944
O	-3.710385	-0.908499	-8.326944
O	-3.221576	1.400362	-6.018083
O	0.910922	0.908499	-5.526220
O	-3.221576	3.217359	-7.835080
O	-1.399732	3.217359	-6.018083
O	-1.399732	1.400362	-7.835080
Zn	-5.776634	-1.154430	-8.081012
Zn	-1.155327	1.154430	-5.772152
Zn	1.155327	-1.154430	-5.772152
Zn	-3.465981	1.154430	-8.081012
K	0.000000	4.617721	-4.617721
K	2.310654	2.308861	-6.926582
O	3.710385	3.709223	-5.526220
O	-0.910922	5.526220	-8.326944
O	0.910922	3.709223	-8.326944
O	1.399732	6.018083	-6.018083
O	5.532229	5.526220	-5.526220
O	1.399732	7.835080	-7.835080
O	3.221576	7.835080	-6.018083
O	3.221576	6.018083	-7.835080
Zn	-1.155327	3.463291	-8.081012
Zn	3.465981	5.772152	-5.772152
Zn	5.776634	3.463291	-5.772152
Zn	1.155327	5.772152	-8.081012
K	4.621307	-4.617721	0.000000
K	6.931961	-6.926582	-2.308861
O	8.331693	-5.526220	-0.908499
O	3.710385	-3.709223	-3.709223
O	5.532229	-5.526220	-3.709223
O	6.021039	-3.217359	-1.400362
O	10.153537	-3.709223	-0.908499
O	6.021039	-1.400362	-3.217359
O	7.842883	-1.400362	-1.400362
O	7.842883	-3.217359	-3.217359
Zn	3.465981	-5.772152	-3.463291
Zn	8.087288	-3.463291	-1.154430
Zn	10.397942	-5.772152	-1.154430
Zn	5.776634	-3.463291	-3.463291
K	9.242615	0.000000	0.000000
K	11.553268	-2.308861	-2.308861
O	12.953000	-0.908499	-0.908499
O	8.331693	0.908499	-3.709223
O	10.153537	-0.908499	-3.709223
O	10.642346	1.400362	-1.400362
O	14.774844	0.908499	-0.908499
O	10.642346	3.217359	-3.217359
O	12.464190	3.217359	-1.400362
O	12.464190	1.400362	-3.217359
Zn	8.087288	-1.154430	-3.463291
Zn	12.708595	1.154430	-1.154430
Zn	15.019249	-1.154430	-1.154430
Zn	10.397942	1.154430	-3.463291
K	0.000000	-4.617721	-4.617721
K	2.310654	-6.926582	-6.926582
O	3.710385	-5.526220	-5.526220
O	-0.910922	-3.709223	-8.326944
O	0.910922	-5.526220	-8.326944
O	1.399732	-3.217359	-6.018083
O	5.532229	-3.709223	-5.526220
O	1.399732	-1.400362	-7.835080
O	3.221576	-1.400362	-6.018083
O	3.221576	-3.217359	-7.835080
Zn	-1.155327	-5.772152	-8.081012
Zn	3.465981	-3.463291	-5.772152
Zn	5.776634	-5.772152	-5.772152
Zn	1.155327	-3.463291	-8.081012
K	4.621307	0.000000	-4.617721
K	6.931961	-2.308861	-6.926582
O	8.331693	-0.908499	-5.526220
O	3.710385	0.908499	-8.326944
O	5.532229	-0.908499	-8.326944
O	6.021039	1.400362	-6.018083
O	10.153537	0.908499	-5.526220
O	6.021039	3.217359	-7.835080
O	7.842883	3.217359	-6.018083
O	7.842883	1.400362	-7.835080
Zn	3.465981	-1.154430	-8.081012
Zn	8.087288	1.154430	-5.772152
Zn	10.397942	-1.154430	-5.772152
Zn	5.776634	1.154430	-8.081012
