40

O	1.805465	1.805465	0.000000
O	1.805465	0.000000	1.805465
O	0.000000	1.805465	1.805465
Ru	0.000000	0.000000	0.000000
Si	1.805465	1.805465	1.805465
O	1.805465	1.805465	3.610931
O	1.805465	0.000000	5.416396
O	0.000000	1.805465	5.416396
Ru	0.000000	0.000000	3.610931
Si	1.805465	1.805465	5.416396
O	1.805465	5.416396	0.000000
O	1.805465	3.610931	1.805465
O	0.000000	5.416396	1.805465
Ru	0.000000	3.610931	0.000000
Si	1.805465	5.416396	1.805465
O	1.805465	5.416396	3.610931
O	1.805465	3.610931	5.416396
O	0.000000	5.416396	5.416396
Ru	0.000000	3.610931	3.610931
Si	1.805465	5.416396	5.416396
O	5.416396	1.805465	0.000000
O	5.416396	0.000000	1.805465
O	3.610931	1.805465	1.805465
Ru	3.610931	0.000000	0.000000
Si	5.416396	1.805465	1.805465
O	5.416396	1.805465	3.610931
O	5.416396	0.000000	5.416396
O	3.610931	1.805465	5.416396
Ru	3.610931	0.000000	3.610931
Si	5.416396	1.805465	5.416396
O	5.416396	5.416396	0.000000
O	5.416396	3.610931	1.805465
O	3.610931	5.416396	1.805465
Ru	3.610931	3.610931	0.000000
Si	5.416396	5.416396	1.805465
O	5.416396	5.416396	3.610931
O	5.416396	3.610931	5.416396
O	3.610931	5.416396	5.416396
Ru	3.610931	3.610931	3.610931
Si	5.416396	5.416396	5.416396
