40

O	0.000000	2.025854	2.025854
O	2.025854	0.000000	2.025854
O	2.025854	2.025854	0.000000
Se	2.025854	2.025854	2.025854
Sn	0.000000	0.000000	0.000000
O	0.000000	2.025854	6.077562
O	2.025854	0.000000	6.077562
O	2.025854	2.025854	4.051708
Se	2.025854	2.025854	6.077562
Sn	0.000000	0.000000	4.051708
O	0.000000	6.077562	2.025854
O	2.025854	4.051708	2.025854
O	2.025854	6.077562	0.000000
Se	2.025854	6.077562	2.025854
Sn	0.000000	4.051708	0.000000
O	0.000000	6.077562	6.077562
O	2.025854	4.051708	6.077562
O	2.025854	6.077562	4.051708
Se	2.025854	6.077562	6.077562
Sn	0.000000	4.051708	4.051708
O	4.051708	2.025854	2.025854
O	6.077562	0.000000	2.025854
O	6.077562	2.025854	0.000000
Se	6.077562	2.025854	2.025854
Sn	4.051708	0.000000	0.000000
O	4.051708	2.025854	6.077562
O	6.077562	0.000000	6.077562
O	6.077562	2.025854	4.051708
Se	6.077562	2.025854	6.077562
Sn	4.051708	0.000000	4.051708
O	4.051708	6.077562	2.025854
O	6.077562	4.051708	2.025854
O	6.077562	6.077562	0.000000
Se	6.077562	6.077562	2.025854
Sn	4.051708	4.051708	0.000000
O	4.051708	6.077562	6.077562
O	6.077562	4.051708	6.077562
O	6.077562	6.077562	4.051708
Se	6.077562	6.077562	6.077562
Sn	4.051708	4.051708	4.051708
