112

As	0.000000	0.000000	0.000000
As	2.438385	-2.437924	-2.437924
O	3.444427	-1.433351	-1.433351
O	-1.432343	1.433351	-3.442497
O	1.432343	-1.433351	-3.442497
O	1.006042	1.004573	-1.004573
O	6.309114	1.433351	-1.433351
O	1.006042	3.871275	-3.871275
O	3.870729	3.871275	-1.004573
O	3.870729	1.004573	-3.871275
Pb	-1.219193	-1.218962	-3.656886
Pb	3.657578	1.218962	-1.218962
Pb	6.095963	-1.218962	-1.218962
Pb	1.219193	1.218962	-3.656886
As	4.876771	4.875848	0.000000
As	7.315156	2.437924	-2.437924
O	8.321198	3.442497	-1.433351
O	3.444427	6.309199	-3.442497
O	6.309114	3.442497	-3.442497
O	5.882813	5.880421	-1.004573
O	11.185884	6.309199	-1.433351
O	5.882813	8.747123	-3.871275
O	8.747499	8.747123	-1.004573
O	8.747499	5.880421	-3.871275
Pb	3.657578	3.656886	-3.656886
Pb	8.534349	6.094810	-1.218962
Pb	10.972734	3.656886	-1.218962
Pb	6.095963	6.094810	-3.656886
As	-4.876771	0.000000	-4.875848
As	-2.438385	-2.437924	-7.313772
O	-1.432343	-1.433351	-6.309199
O	-6.309114	1.433351	-8.318345
O	-3.444427	-1.433351	-8.318345
O	-3.870729	1.004573	-5.880421
O	1.432343	1.433351	-6.309199
O	-3.870729	3.871275	-8.747123
O	-1.006042	3.871275	-5.880421
O	-1.006042	1.004573	-8.747123
Pb	-6.095963	-1.218962	-8.532734
Pb	-1.219193	1.218962	-6.094810
Pb	1.219193	-1.218962	-6.094810
Pb	-3.657578	1.218962	-8.532734
As	0.000000	4.875848	-4.875848
As	2.438385	2.437924	-7.313772
O	3.444427	3.442497	-6.309199
O	-1.432343	6.309199	-8.318345
O	1.432343	3.442497	-8.318345
O	1.006042	5.880421	-5.880421
O	6.309114	6.309199	-6.309199
O	1.006042	8.747123	-8.747123
O	3.870729	8.747123	-5.880421
O	3.870729	5.880421	-8.747123
Pb	-1.219193	3.656886	-8.532734
Pb	3.657578	6.094810	-6.094810
Pb	6.095963	3.656886	-6.094810
Pb	1.219193	6.094810	-8.532734
As	4.876771	-4.875848	0.000000
As	7.315156	-7.313772	-2.437924
O	8.321198	-6.309199	-1.433351
O	3.444427	-3.442497	-3.442497
O	6.309114	-6.309199	-3.442497
O	5.882813	-3.871275	-1.004573
O	11.185884	-3.442497	-1.433351
O	5.882813	-1.004573	-3.871275
O	8.747499	-1.004573	-1.004573
O	8.747499	-3.871275	-3.871275
Pb	3.657578	-6.094810	-3.656886
Pb	8.534349	-3.656886	-1.218962
Pb	10.972734	-6.094810	-1.218962
Pb	6.095963	-3.656886	-3.656886
As	9.753541	0.000000	0.000000
As	12.191926	-2.437924	-2.437924
O	13.197968	-1.433351	-1.433351
O	8.321198	1.433351	-3.442497
O	11.185884	-1.433351	-3.442497
O	10.759583	1.004573	-1.004573
O	16.062655	1.433351	-1.433351
O	10.759583	3.871275	-3.871275
O	13.624270	3.871275	-1.004573
O	13.624270	1.004573	-3.871275
Pb	8.534349	-1.218962	-3.656886
Pb	13.411119	1.218962	-1.218962
Pb	15.849504	-1.218962	-1.218962
Pb	10.972734	1.218962	-3.656886
As	0.000000	-4.875848	-4.875848
As	2.438385	-7.313772	-7.313772
O	3.444427	-6.309199	-6.309199
O	-1.432343	-3.442497	-8.318345
O	1.432343	-6.309199	-8.318345
O	1.006042	-3.871275	-5.880421
O	6.309114	-3.442497	-6.309199
O	1.006042	-1.004573	-8.747123
O	3.870729	-1.004573	-5.880421
O	3.870729	-3.871275	-8.747123
Pb	-1.219193	-6.094810	-8.532734
Pb	3.657578	-3.656886	-6.094810
Pb	6.095963	-6.094810	-6.094810
Pb	1.219193	-3.656886	-8.532734
As	4.876771	0.000000	-4.875848
As	7.315156	-2.437924	-7.313772
O	8.321198	-1.433351	-6.309199
O	3.444427	1.433351	-8.318345
O	6.309114	-1.433351	-8.318345
O	5.882813	1.004573	-5.880421
O	11.185884	1.433351	-6.309199
O	5.882813	3.871275	-8.747123
O	8.747499	3.871275	-5.880421
O	8.747499	1.004573	-8.747123
Pb	3.657578	-1.218962	-8.532734
Pb	8.534349	1.218962	-6.094810
Pb	10.972734	-1.218962	-6.094810
Pb	6.095963	1.218962	-8.532734
