112

As	0.000000	0.000000	0.000000
As	2.427680	-2.427502	-2.427502
O	1.004251	1.003274	-1.003274
O	1.423419	-1.424228	-3.430786
O	3.431931	-1.424228	-1.424228
O	-1.423419	1.424228	-3.430786
O	3.851100	3.851730	-1.003274
O	3.851100	1.003274	-3.851730
O	1.004251	3.851730	-3.851730
O	6.278770	1.424228	-1.424228
Pb	-1.213835	-1.213751	-3.641263
Pb	6.069186	-1.213751	-1.213751
Pb	3.641515	1.213751	-1.213751
Pb	1.213835	1.213751	-3.641263
As	4.855351	4.855012	0.000000
As	7.283031	2.427510	-2.427502
O	5.859602	5.858286	-1.003274
O	6.278771	3.430784	-3.430786
O	8.287282	3.430784	-1.424228
O	3.431932	6.279240	-3.430786
O	8.706451	8.706742	-1.003274
O	8.706451	5.858286	-3.851730
O	5.859602	8.706742	-3.851730
O	11.134121	6.279240	-1.424228
Pb	3.641516	3.641261	-3.641263
Pb	10.924537	3.641261	-1.213751
Pb	8.496867	6.068763	-1.213751
Pb	6.069186	6.068763	-3.641263
As	-4.855351	0.000000	-4.855012
As	-2.427671	-2.427502	-7.282514
O	-3.851100	1.003274	-5.858286
O	-3.431932	-1.424228	-8.285798
O	-1.423420	-1.424228	-6.279240
O	-6.278771	1.424228	-8.285798
O	-1.004252	3.851730	-5.858286
O	-1.004252	1.003274	-8.706742
O	-3.851100	3.851730	-8.706742
O	1.423419	1.424228	-6.279240
Pb	-6.069186	-1.213751	-8.496275
Pb	1.213835	-1.213751	-6.068763
Pb	-1.213836	1.213751	-6.068763
Pb	-3.641516	1.213751	-8.496275
As	0.000000	4.855012	-4.855012
As	2.427680	2.427510	-7.282514
O	1.004251	5.858286	-5.858286
O	1.423419	3.430784	-8.285798
O	3.431931	3.430784	-6.279240
O	-1.423419	6.279240	-8.285798
O	3.851100	8.706742	-5.858286
O	3.851100	5.858286	-8.706742
O	1.004251	8.706742	-8.706742
O	6.278770	6.279240	-6.279240
Pb	-1.213835	3.641261	-8.496275
Pb	6.069186	3.641261	-6.068763
Pb	3.641515	6.068763	-6.068763
Pb	1.213835	6.068763	-8.496275
As	4.855351	-4.855012	0.000000
As	7.283031	-7.282514	-2.427502
O	5.859602	-3.851738	-1.003274
O	6.278771	-6.279240	-3.430786
O	8.287282	-6.279240	-1.424228
O	3.431932	-3.430784	-3.430786
O	8.706451	-1.003282	-1.003274
O	8.706451	-3.851738	-3.851730
O	5.859602	-1.003282	-3.851730
O	11.134121	-3.430784	-1.424228
Pb	3.641516	-6.068763	-3.641263
Pb	10.924537	-6.068763	-1.213751
Pb	8.496867	-3.641261	-1.213751
Pb	6.069186	-3.641261	-3.641263
As	9.710702	0.000000	0.000000
As	12.138383	-2.427502	-2.427502
O	10.714953	1.003274	-1.003274
O	11.134122	-1.424228	-3.430786
O	13.142634	-1.424228	-1.424228
O	8.287283	1.424228	-3.430786
O	13.561802	3.851730	-1.003274
O	13.561802	1.003274	-3.851730
O	10.714953	3.851730	-3.851730
O	15.989473	1.424228	-1.424228
Pb	8.496867	-1.213751	-3.641263
Pb	15.779888	-1.213751	-1.213751
Pb	13.352218	1.213751	-1.213751
Pb	10.924538	1.213751	-3.641263
As	0.000000	-4.855012	-4.855012
As	2.427680	-7.282514	-7.282514
O	1.004251	-3.851738	-5.858286
O	1.423419	-6.279240	-8.285798
O	3.431931	-6.279240	-6.279240
O	-1.423419	-3.430784	-8.285798
O	3.851100	-1.003282	-5.858286
O	3.851100	-3.851738	-8.706742
O	1.004251	-1.003282	-8.706742
O	6.278770	-3.430784	-6.279240
Pb	-1.213835	-6.068763	-8.496275
Pb	6.069186	-6.068763	-6.068763
Pb	3.641515	-3.641261	-6.068763
Pb	1.213835	-3.641261	-8.496275
As	4.855351	0.000000	-4.855012
As	7.283031	-2.427502	-7.282514
O	5.859602	1.003274	-5.858286
O	6.278771	-1.424228	-8.285798
O	8.287282	-1.424228	-6.279240
O	3.431932	1.424228	-8.285798
O	8.706451	3.851730	-5.858286
O	8.706451	1.003274	-8.706742
O	5.859602	3.851730	-8.706742
O	11.134121	1.424228	-6.279240
Pb	3.641516	-1.213751	-8.496275
Pb	10.924537	-1.213751	-6.068763
Pb	8.496867	1.213751	-6.068763
Pb	6.069186	1.213751	-8.496275
