40

As	0.000000	0.000000	0.000000
O	0.000000	1.957442	1.957442
O	1.957442	0.000000	1.957442
O	1.957442	1.957442	0.000000
Rh	1.957442	1.957442	1.957442
As	0.000000	0.000000	3.914884
O	0.000000	1.957442	5.872326
O	1.957442	0.000000	5.872326
O	1.957442	1.957442	3.914884
Rh	1.957442	1.957442	5.872326
As	0.000000	3.914884	0.000000
O	0.000000	5.872326	1.957442
O	1.957442	3.914884	1.957442
O	1.957442	5.872326	0.000000
Rh	1.957442	5.872326	1.957442
As	0.000000	3.914884	3.914884
O	0.000000	5.872326	5.872326
O	1.957442	3.914884	5.872326
O	1.957442	5.872326	3.914884
Rh	1.957442	5.872326	5.872326
As	3.914884	0.000000	0.000000
O	3.914884	1.957442	1.957442
O	5.872326	0.000000	1.957442
O	5.872326	1.957442	0.000000
Rh	5.872326	1.957442	1.957442
As	3.914884	0.000000	3.914884
O	3.914884	1.957442	5.872326
O	5.872326	0.000000	5.872326
O	5.872326	1.957442	3.914884
Rh	5.872326	1.957442	5.872326
As	3.914884	3.914884	0.000000
O	3.914884	5.872326	1.957442
O	5.872326	3.914884	1.957442
O	5.872326	5.872326	0.000000
Rh	5.872326	5.872326	1.957442
As	3.914884	3.914884	3.914884
O	3.914884	5.872326	5.872326
O	5.872326	3.914884	5.872326
O	5.872326	5.872326	3.914884
Rh	5.872326	5.872326	5.872326
