40

Al	1.883155	1.883155	1.883155
O	1.883155	1.883155	0.000000
O	0.000000	1.883155	1.883155
O	1.883155	0.000000	1.883155
U	0.000000	0.000000	0.000000
Al	1.883155	1.883155	5.649474
O	1.883155	1.883155	3.766319
O	0.000000	1.883155	5.649474
O	1.883155	0.000000	5.649474
U	0.000000	0.000000	3.766319
Al	1.883155	5.649474	1.883155
O	1.883155	5.649474	0.000000
O	0.000000	5.649474	1.883155
O	1.883155	3.766319	1.883155
U	0.000000	3.766319	0.000000
Al	1.883155	5.649474	5.649474
O	1.883155	5.649474	3.766319
O	0.000000	5.649474	5.649474
O	1.883155	3.766319	5.649474
U	0.000000	3.766319	3.766319
Al	5.649474	1.883155	1.883155
O	5.649474	1.883155	0.000000
O	3.766319	1.883155	1.883155
O	5.649474	0.000000	1.883155
U	3.766319	0.000000	0.000000
Al	5.649474	1.883155	5.649474
O	5.649474	1.883155	3.766319
O	3.766319	1.883155	5.649474
O	5.649474	0.000000	5.649474
U	3.766319	0.000000	3.766319
Al	5.649474	5.649474	1.883155
O	5.649474	5.649474	0.000000
O	3.766319	5.649474	1.883155
O	5.649474	3.766319	1.883155
U	3.766319	3.766319	0.000000
Al	5.649474	5.649474	5.649474
O	5.649474	5.649474	3.766319
O	3.766319	5.649474	5.649474
O	5.649474	3.766319	5.649474
U	3.766319	3.766319	3.766319
