40

Al	1.828798	1.828798	1.828798
O	0.000000	1.828798	1.828798
O	1.828798	0.000000	1.828798
O	1.828798	1.828798	0.000000
P	0.000000	0.000000	0.000000
Al	1.828798	1.828798	5.486394
O	0.000000	1.828798	5.486394
O	1.828798	0.000000	5.486394
O	1.828798	1.828798	3.657596
P	0.000000	0.000000	3.657596
Al	1.828798	5.486394	1.828798
O	0.000000	5.486394	1.828798
O	1.828798	3.657596	1.828798
O	1.828798	5.486394	0.000000
P	0.000000	3.657596	0.000000
Al	1.828798	5.486394	5.486394
O	0.000000	5.486394	5.486394
O	1.828798	3.657596	5.486394
O	1.828798	5.486394	3.657596
P	0.000000	3.657596	3.657596
Al	5.486394	1.828798	1.828798
O	3.657596	1.828798	1.828798
O	5.486394	0.000000	1.828798
O	5.486394	1.828798	0.000000
P	3.657596	0.000000	0.000000
Al	5.486394	1.828798	5.486394
O	3.657596	1.828798	5.486394
O	5.486394	0.000000	5.486394
O	5.486394	1.828798	3.657596
P	3.657596	0.000000	3.657596
Al	5.486394	5.486394	1.828798
O	3.657596	5.486394	1.828798
O	5.486394	3.657596	1.828798
O	5.486394	5.486394	0.000000
P	3.657596	3.657596	0.000000
Al	5.486394	5.486394	5.486394
O	3.657596	5.486394	5.486394
O	5.486394	3.657596	5.486394
O	5.486394	5.486394	3.657596
P	3.657596	3.657596	3.657596
