40

Eu	0.000000	0.000000	0.000000
Ge	1.890753	1.890753	1.890753
O	1.890753	1.890753	0.000000
O	1.890753	0.000000	1.890753
O	0.000000	1.890753	1.890753
Eu	0.000000	0.000000	3.781509
Ge	1.890753	1.890753	5.672262
O	1.890753	1.890753	3.781509
O	1.890753	0.000000	5.672262
O	0.000000	1.890753	5.672262
Eu	0.000000	3.781509	0.000000
Ge	1.890753	5.672262	1.890753
O	1.890753	5.672262	0.000000
O	1.890753	3.781509	1.890753
O	0.000000	5.672262	1.890753
Eu	0.000000	3.781509	3.781509
Ge	1.890753	5.672262	5.672262
O	1.890753	5.672262	3.781509
O	1.890753	3.781509	5.672262
O	0.000000	5.672262	5.672262
Eu	3.781509	0.000000	0.000000
Ge	5.672262	1.890753	1.890753
O	5.672262	1.890753	0.000000
O	5.672262	0.000000	1.890753
O	3.781509	1.890753	1.890753
Eu	3.781509	0.000000	3.781509
Ge	5.672262	1.890753	5.672262
O	5.672262	1.890753	3.781509
O	5.672262	0.000000	5.672262
O	3.781509	1.890753	5.672262
Eu	3.781509	3.781509	0.000000
Ge	5.672262	5.672262	1.890753
O	5.672262	5.672262	0.000000
O	5.672262	3.781509	1.890753
O	3.781509	5.672262	1.890753
Eu	3.781509	3.781509	3.781509
Ge	5.672262	5.672262	5.672262
O	5.672262	5.672262	3.781509
O	5.672262	3.781509	5.672262
O	3.781509	5.672262	5.672262
