112

O	4.911063	3.472646	8.506211
O	1.765854	1.248648	5.615021
O	2.503844	3.335998	4.336785
O	3.979824	1.248648	4.336785
O	4.173074	1.385296	7.227975
O	2.697094	3.472646	7.227975
O	1.765854	1.248648	3.058549
O	4.911063	3.472646	5.949740
Al	2.503844	0.000000	4.336785
Al	0.834615	2.360647	4.336785
Al	3.338459	2.360647	2.891190
Al	3.338459	2.360647	5.782380
Zn	5.842303	4.131132	10.119166
Zn	0.834615	0.590162	1.445595
O	4.911063	3.472646	14.288591
O	1.765854	1.248648	11.397401
O	2.503844	3.335998	10.119166
O	3.979824	1.248648	10.119166
O	4.173074	1.385296	13.010356
O	2.697094	3.472646	13.010356
O	1.765854	1.248648	8.840930
O	4.911063	3.472646	11.732120
Al	2.503844	0.000000	10.119166
Al	0.834615	2.360647	10.119166
Al	3.338459	2.360647	8.673570
Al	3.338459	2.360647	11.564761
Zn	5.842303	4.131132	15.901546
Zn	0.834615	0.590162	7.227975
O	6.580293	8.193940	11.397401
O	3.435084	5.969941	8.506211
O	4.173074	8.057292	7.227975
O	5.649053	5.969941	7.227975
O	5.842303	6.106590	10.119166
O	4.366323	8.193940	10.119166
O	3.435084	5.969941	5.949740
O	6.580293	8.193940	8.840930
Al	4.173074	4.721294	7.227975
Al	2.503844	7.081941	7.227975
Al	5.007688	7.081941	5.782380
Al	5.007688	7.081941	8.673570
Zn	7.511532	8.852426	13.010356
Zn	2.503844	5.311455	4.336785
O	6.580293	8.193940	17.179782
O	3.435084	5.969941	14.288591
O	4.173074	8.057292	13.010356
O	5.649053	5.969941	13.010356
O	5.842303	6.106590	15.901546
O	4.366323	8.193940	15.901546
O	3.435084	5.969941	11.732120
O	6.580293	8.193940	14.623310
Al	4.173074	4.721294	13.010356
Al	2.503844	7.081941	13.010356
Al	5.007688	7.081941	11.564761
Al	5.007688	7.081941	14.455951
Zn	7.511532	8.852426	18.792736
Zn	2.503844	5.311455	10.119166
O	9.918752	3.472646	11.397401
O	6.773543	1.248648	8.506211
O	7.511532	3.335998	7.227975
O	8.987512	1.248648	7.227975
O	9.180762	1.385296	10.119166
O	7.704782	3.472646	10.119166
O	6.773543	1.248648	5.949740
O	9.918752	3.472646	8.840930
Al	7.511532	0.000000	7.227975
Al	5.842303	2.360647	7.227975
Al	8.346147	2.360647	5.782380
Al	8.346147	2.360647	8.673570
Zn	10.849991	4.131132	13.010356
Zn	5.842303	0.590162	4.336785
O	9.918752	3.472646	17.179782
O	6.773543	1.248648	14.288591
O	7.511532	3.335998	13.010356
O	8.987512	1.248648	13.010356
O	9.180762	1.385296	15.901546
O	7.704782	3.472646	15.901546
O	6.773543	1.248648	11.732120
O	9.918752	3.472646	14.623310
Al	7.511532	0.000000	13.010356
Al	5.842303	2.360647	13.010356
Al	8.346147	2.360647	11.564761
Al	8.346147	2.360647	14.455951
Zn	10.849991	4.131132	18.792736
Zn	5.842303	0.590162	10.119166
O	11.587981	8.193940	14.288591
O	8.442772	5.969941	11.397401
O	9.180762	8.057292	10.119166
O	10.656741	5.969941	10.119166
O	10.849991	6.106590	13.010356
O	9.374012	8.193940	13.010356
O	8.442772	5.969941	8.840930
O	11.587981	8.193940	11.732120
Al	9.180762	4.721294	10.119166
Al	7.511532	7.081941	10.119166
Al	10.015377	7.081941	8.673570
Al	10.015377	7.081941	11.564761
Zn	12.519221	8.852426	15.901546
Zn	7.511532	5.311455	7.227975
O	11.587981	8.193940	20.070972
O	8.442772	5.969941	17.179782
O	9.180762	8.057292	15.901546
O	10.656741	5.969941	15.901546
O	10.849991	6.106590	18.792736
O	9.374012	8.193940	18.792736
O	8.442772	5.969941	14.623310
O	11.587981	8.193940	17.514500
Al	9.180762	4.721294	15.901546
Al	7.511532	7.081941	15.901546
Al	10.015377	7.081941	14.455951
Al	10.015377	7.081941	17.347141
Zn	12.519221	8.852426	21.683926
Zn	7.511532	5.311455	13.010356
