184

B	2.311811	1.334725	3.269395
B	3.853019	1.334725	1.089798
B	-0.770604	4.004174	1.089798
B	3.082415	2.669450	-1.089798
B	0.000000	2.669450	3.269395
B	0.770604	4.004174	-1.089798
O	1.717822	2.975354	-0.592356
O	3.096543	2.363545	-2.542163
O	-2.230568	3.863458	1.317490
O	0.498618	3.863458	-2.542163
O	-0.512747	3.838986	-0.362567
O	4.461136	0.000000	1.317490
O	2.729187	0.000000	3.766837
O	-1.364593	2.363545	3.766837
O	0.014128	2.975354	1.817030
O	2.569668	1.499913	1.817030
O	0.851847	1.475442	3.497086
O	3.581033	1.475442	-0.362567
O	0.000000	0.000000	0.000000
Zn	0.000000	0.000000	4.532045
Zn	-2.136427	3.700399	-1.510682
Zn	4.272853	0.000000	-1.510682
Zn	0.945988	1.638500	0.668915
B	2.311811	1.334725	9.808184
B	3.853019	1.334725	7.628588
B	-0.770604	4.004174	7.628588
B	3.082415	2.669450	5.448991
B	0.000000	2.669450	9.808184
B	0.770604	4.004174	5.448991
O	1.717822	2.975354	5.946433
O	3.096543	2.363545	3.996626
O	-2.230568	3.863458	7.856279
O	0.498618	3.863458	3.996626
O	-0.512747	3.838986	6.176223
O	4.461136	0.000000	7.856279
O	2.729187	0.000000	10.305626
O	-1.364593	2.363545	10.305626
O	0.014128	2.975354	8.355819
O	2.569668	1.499913	8.355819
O	0.851847	1.475442	10.035875
O	3.581033	1.475442	6.176223
O	0.000000	0.000000	6.538789
Zn	0.000000	0.000000	11.070835
Zn	-2.136427	3.700399	5.028108
Zn	4.272853	0.000000	5.028108
Zn	0.945988	1.638500	7.207704
B	-0.770604	6.673624	1.089798
B	0.770604	6.673624	-1.089798
B	-3.853019	9.343073	-1.089798
B	0.000000	8.008349	-3.269395
B	-3.082415	8.008349	1.089798
B	-2.311811	9.343073	-3.269395
O	-1.364593	8.314253	-2.771953
O	0.014128	7.702444	-4.721760
O	-5.312983	9.202357	-0.862107
O	-2.583797	9.202357	-4.721760
O	-3.595161	9.177886	-2.542163
O	1.378722	5.338899	-0.862107
O	-0.353228	5.338899	1.587240
O	-4.447008	7.702444	1.587240
O	-3.068286	8.314253	-0.362567
O	-0.512747	6.838812	-0.362567
O	-2.230568	6.814341	1.317490
O	0.498618	6.814341	-2.542163
O	-3.082415	5.338899	-2.179596
Zn	-3.082415	5.338899	2.352449
Zn	-5.218841	9.039299	-3.690278
Zn	1.190438	5.338899	-3.690278
Zn	-2.136427	6.977399	-1.510682
B	-0.770604	6.673624	7.628588
B	0.770604	6.673624	5.448991
B	-3.853019	9.343073	5.448991
B	0.000000	8.008349	3.269395
B	-3.082415	8.008349	7.628588
B	-2.311811	9.343073	3.269395
O	-1.364593	8.314253	3.766837
O	0.014128	7.702444	1.817030
O	-5.312983	9.202357	5.676682
O	-2.583797	9.202357	1.817030
O	-3.595161	9.177886	3.996626
O	1.378722	5.338899	5.676682
O	-0.353228	5.338899	8.126030
O	-4.447008	7.702444	8.126030
O	-3.068286	8.314253	6.176223
O	-0.512747	6.838812	6.176223
O	-2.230568	6.814341	7.856279
O	0.498618	6.814341	3.996626
O	-3.082415	5.338899	4.359193
Zn	-3.082415	5.338899	8.891238
Zn	-5.218841	9.039299	2.848511
Zn	1.190438	5.338899	2.848511
Zn	-2.136427	6.977399	5.028108
B	8.476641	1.334725	1.089798
B	10.017848	1.334725	-1.089798
B	5.394226	4.004174	-1.089798
B	9.247245	2.669450	-3.269395
B	6.164830	2.669450	1.089798
B	6.935433	4.004174	-3.269395
O	7.882651	2.975354	-2.771953
O	9.261373	2.363545	-4.721760
O	3.934261	3.863458	-0.862107
O	6.663448	3.863458	-4.721760
O	5.652083	3.838986	-2.542163
O	10.625966	0.000000	-0.862107
O	8.894016	0.000000	1.587240
O	4.800236	2.363545	1.587240
O	6.178958	2.975354	-0.362567
O	8.734498	1.499913	-0.362567
O	7.016676	1.475442	1.317490
O	9.745863	1.475442	-2.542163
O	6.164830	0.000000	-2.179596
Zn	6.164830	0.000000	2.352449
Zn	4.028403	3.700399	-3.690278
Zn	10.437683	0.000000	-3.690278
Zn	7.110818	1.638500	-1.510682
B	8.476641	1.334725	7.628588
B	10.017848	1.334725	5.448991
B	5.394226	4.004174	5.448991
B	9.247245	2.669450	3.269395
B	6.164830	2.669450	7.628588
B	6.935433	4.004174	3.269395
O	7.882651	2.975354	3.766837
O	9.261373	2.363545	1.817030
O	3.934261	3.863458	5.676682
O	6.663448	3.863458	1.817030
O	5.652083	3.838986	3.996626
O	10.625966	0.000000	5.676682
O	8.894016	0.000000	8.126030
O	4.800236	2.363545	8.126030
O	6.178958	2.975354	6.176223
O	8.734498	1.499913	6.176223
O	7.016676	1.475442	7.856279
O	9.745863	1.475442	3.996626
O	6.164830	0.000000	4.359193
Zn	6.164830	0.000000	8.891238
Zn	4.028403	3.700399	2.848511
Zn	10.437683	0.000000	2.848511
Zn	7.110818	1.638500	5.028108
B	5.394226	6.673624	-1.089798
B	6.935433	6.673624	-3.269395
B	2.311811	9.343073	-3.269395
B	6.164830	8.008349	-5.448991
B	3.082415	8.008349	-1.089798
B	3.853019	9.343073	-5.448991
O	4.800236	8.314253	-4.951549
O	6.178958	7.702444	-6.901356
O	0.851847	9.202357	-3.041703
O	3.581033	9.202357	-6.901356
O	2.569668	9.177886	-4.721760
O	7.543551	5.338899	-3.041703
O	5.811601	5.338899	-0.592356
O	1.717822	7.702444	-0.592356
O	3.096543	8.314253	-2.542163
O	5.652083	6.838812	-2.542163
O	3.934261	6.814341	-0.862107
O	6.663448	6.814341	-4.721760
O	3.082415	5.338899	-4.359193
Zn	3.082415	5.338899	0.172852
Zn	0.945988	9.039299	-5.869875
Zn	7.355268	5.338899	-5.869875
Zn	4.028403	6.977399	-3.690278
B	5.394226	6.673624	5.448991
B	6.935433	6.673624	3.269395
B	2.311811	9.343073	3.269395
B	6.164830	8.008349	1.089798
B	3.082415	8.008349	5.448991
B	3.853019	9.343073	1.089798
O	4.800236	8.314253	1.587240
O	6.178958	7.702444	-0.362567
O	0.851847	9.202357	3.497086
O	3.581033	9.202357	-0.362567
O	2.569668	9.177886	1.817030
O	7.543551	5.338899	3.497086
O	5.811601	5.338899	5.946433
O	1.717822	7.702444	5.946433
O	3.096543	8.314253	3.996626
O	5.652083	6.838812	3.996626
O	3.934261	6.814341	5.676682
O	6.663448	6.814341	1.817030
O	3.082415	5.338899	2.179596
Zn	3.082415	5.338899	6.711642
Zn	0.945988	9.039299	0.668915
Zn	7.355268	5.338899	0.668915
Zn	4.028403	6.977399	2.848511
