112

B	0.000000	0.000000	0.000000
B	1.951219	-1.940189	-1.940189
Co	-0.975609	-0.970095	-2.910284
Co	2.926828	0.970095	-0.970095
Co	4.878046	-0.970095	-0.970095
Co	0.975609	0.970095	-2.910284
O	2.823477	-1.060021	-1.060021
O	-1.078960	1.060021	-2.820358
O	1.078960	-1.060021	-2.820358
O	0.872259	0.880168	-0.880168
O	4.981397	1.060021	-1.060021
O	0.872259	3.000210	-3.000210
O	3.030178	3.000210	-0.880168
O	3.030178	0.880168	-3.000210
B	3.902437	3.880379	0.000000
B	5.853656	1.940189	-1.940189
Co	2.926828	2.910284	-2.910284
Co	6.829265	4.850473	-0.970095
Co	8.780484	2.910284	-0.970095
Co	4.878046	4.850473	-2.910284
O	6.725914	2.820358	-1.060021
O	2.823477	4.940400	-2.820358
O	4.981397	2.820358	-2.820358
O	4.774696	4.760547	-0.880168
O	8.883834	4.940400	-1.060021
O	4.774696	6.880589	-3.000210
O	6.932616	6.880589	-0.880168
O	6.932616	4.760547	-3.000210
B	-3.902437	0.000000	-3.880379
B	-1.951219	-1.940189	-5.820568
Co	-4.878046	-0.970095	-6.790663
Co	-0.975609	0.970095	-4.850473
Co	0.975609	-0.970095	-4.850473
Co	-2.926828	0.970095	-6.790663
O	-1.078960	-1.060021	-4.940400
O	-4.981397	1.060021	-6.700736
O	-2.823477	-1.060021	-6.700736
O	-3.030178	0.880168	-4.760547
O	1.078960	1.060021	-4.940400
O	-3.030178	3.000210	-6.880589
O	-0.872259	3.000210	-4.760547
O	-0.872259	0.880168	-6.880589
B	0.000000	3.880379	-3.880379
B	1.951219	1.940189	-5.820568
Co	-0.975609	2.910284	-6.790663
Co	2.926828	4.850473	-4.850473
Co	4.878046	2.910284	-4.850473
Co	0.975609	4.850473	-6.790663
O	2.823477	2.820358	-4.940400
O	-1.078960	4.940400	-6.700736
O	1.078960	2.820358	-6.700736
O	0.872259	4.760547	-4.760547
O	4.981397	4.940400	-4.940400
O	0.872259	6.880589	-6.880589
O	3.030178	6.880589	-4.760547
O	3.030178	4.760547	-6.880589
B	3.902437	-3.880379	0.000000
B	5.853656	-5.820568	-1.940189
Co	2.926828	-4.850473	-2.910284
Co	6.829265	-2.910284	-0.970095
Co	8.780484	-4.850473	-0.970095
Co	4.878046	-2.910284	-2.910284
O	6.725914	-4.940400	-1.060021
O	2.823477	-2.820358	-2.820358
O	4.981397	-4.940400	-2.820358
O	4.774696	-3.000211	-0.880168
O	8.883834	-2.820358	-1.060021
O	4.774696	-0.880168	-3.000210
O	6.932616	-0.880168	-0.880168
O	6.932616	-3.000211	-3.000210
B	7.804874	0.000000	0.000000
B	9.756093	-1.940189	-1.940189
Co	6.829265	-0.970095	-2.910284
Co	10.731702	0.970095	-0.970095
Co	12.682921	-0.970095	-0.970095
Co	8.780484	0.970095	-2.910284
O	10.628351	-1.060021	-1.060021
O	6.725914	1.060021	-2.820358
O	8.883834	-1.060021	-2.820358
O	8.677133	0.880168	-0.880168
O	12.786271	1.060021	-1.060021
O	8.677133	3.000210	-3.000210
O	10.835053	3.000210	-0.880168
O	10.835053	0.880168	-3.000210
B	0.000000	-3.880379	-3.880379
B	1.951219	-5.820568	-5.820568
Co	-0.975609	-4.850473	-6.790663
Co	2.926828	-2.910284	-4.850473
Co	4.878046	-4.850473	-4.850473
Co	0.975609	-2.910284	-6.790663
O	2.823477	-4.940400	-4.940400
O	-1.078960	-2.820358	-6.700736
O	1.078960	-4.940400	-6.700736
O	0.872259	-3.000211	-4.760547
O	4.981397	-2.820358	-4.940400
O	0.872259	-0.880168	-6.880589
O	3.030178	-0.880168	-4.760547
O	3.030178	-3.000211	-6.880589
B	3.902437	0.000000	-3.880379
B	5.853656	-1.940189	-5.820568
Co	2.926828	-0.970095	-6.790663
Co	6.829265	0.970095	-4.850473
Co	8.780484	-0.970095	-4.850473
Co	4.878046	0.970095	-6.790663
O	6.725914	-1.060021	-4.940400
O	2.823477	1.060021	-6.700736
O	4.981397	-1.060021	-6.700736
O	4.774696	0.880168	-4.760547
O	8.883834	1.060021	-4.940400
O	4.774696	3.000210	-6.880589
O	6.932616	3.000210	-4.760547
O	6.932616	0.880168	-6.880589
