40

O	1.940150	1.940150	0.000000
O	0.000000	1.940150	1.940150
O	1.940150	0.000000	1.940150
Pa	0.000000	0.000000	0.000000
Zn	1.940150	1.940150	1.940150
O	1.940150	1.940150	3.880312
O	0.000000	1.940150	5.820462
O	1.940150	0.000000	5.820462
Pa	0.000000	0.000000	3.880312
Zn	1.940150	1.940150	5.820462
O	1.940150	5.820462	0.000000
O	0.000000	5.820462	1.940150
O	1.940150	3.880312	1.940150
Pa	0.000000	3.880312	0.000000
Zn	1.940150	5.820462	1.940150
O	1.940150	5.820462	3.880312
O	0.000000	5.820462	5.820462
O	1.940150	3.880312	5.820462
Pa	0.000000	3.880312	3.880312
Zn	1.940150	5.820462	5.820462
O	5.820462	1.940150	0.000000
O	3.880312	1.940150	1.940150
O	5.820462	0.000000	1.940150
Pa	3.880312	0.000000	0.000000
Zn	5.820462	1.940150	1.940150
O	5.820462	1.940150	3.880312
O	3.880312	1.940150	5.820462
O	5.820462	0.000000	5.820462
Pa	3.880312	0.000000	3.880312
Zn	5.820462	1.940150	5.820462
O	5.820462	5.820462	0.000000
O	3.880312	5.820462	1.940150
O	5.820462	3.880312	1.940150
Pa	3.880312	3.880312	0.000000
Zn	5.820462	5.820462	1.940150
O	5.820462	5.820462	3.880312
O	3.880312	5.820462	5.820462
O	5.820462	3.880312	5.820462
Pa	3.880312	3.880312	3.880312
Zn	5.820462	5.820462	5.820462
