40

Cl	0.000000	0.000000	0.000000
Ga	1.940310	1.940310	1.940310
O	0.000000	1.940310	1.940310
O	1.940310	0.000000	1.940310
O	1.940310	1.940310	0.000000
Cl	0.000000	0.000000	3.880621
Ga	1.940310	1.940310	5.820931
O	0.000000	1.940310	5.820931
O	1.940310	0.000000	5.820931
O	1.940310	1.940310	3.880621
Cl	0.000000	3.880621	0.000000
Ga	1.940310	5.820931	1.940310
O	0.000000	5.820931	1.940310
O	1.940310	3.880621	1.940310
O	1.940310	5.820931	0.000000
Cl	0.000000	3.880621	3.880621
Ga	1.940310	5.820931	5.820931
O	0.000000	5.820931	5.820931
O	1.940310	3.880621	5.820931
O	1.940310	5.820931	3.880621
Cl	3.880621	0.000000	0.000000
Ga	5.820931	1.940310	1.940310
O	3.880621	1.940310	1.940310
O	5.820931	0.000000	1.940310
O	5.820931	1.940310	0.000000
Cl	3.880621	0.000000	3.880621
Ga	5.820931	1.940310	5.820931
O	3.880621	1.940310	5.820931
O	5.820931	0.000000	5.820931
O	5.820931	1.940310	3.880621
Cl	3.880621	3.880621	0.000000
Ga	5.820931	5.820931	1.940310
O	3.880621	5.820931	1.940310
O	5.820931	3.880621	1.940310
O	5.820931	5.820931	0.000000
Cl	3.880621	3.880621	3.880621
Ga	5.820931	5.820931	5.820931
O	3.880621	5.820931	5.820931
O	5.820931	3.880621	5.820931
O	5.820931	5.820931	3.880621
