40

Ga	1.906155	1.906155	1.906155
Mg	0.000000	0.000000	0.000000
O	0.000000	1.906155	1.906155
O	1.906155	0.000000	1.906155
O	1.906155	1.906155	0.000000
Ga	1.906155	1.906155	5.718465
Mg	0.000000	0.000000	3.812310
O	0.000000	1.906155	5.718465
O	1.906155	0.000000	5.718465
O	1.906155	1.906155	3.812310
Ga	1.906155	5.718465	1.906155
Mg	0.000000	3.812310	0.000000
O	0.000000	5.718465	1.906155
O	1.906155	3.812310	1.906155
O	1.906155	5.718465	0.000000
Ga	1.906155	5.718465	5.718465
Mg	0.000000	3.812310	3.812310
O	0.000000	5.718465	5.718465
O	1.906155	3.812310	5.718465
O	1.906155	5.718465	3.812310
Ga	5.718465	1.906155	1.906155
Mg	3.812310	0.000000	0.000000
O	3.812310	1.906155	1.906155
O	5.718465	0.000000	1.906155
O	5.718465	1.906155	0.000000
Ga	5.718465	1.906155	5.718465
Mg	3.812310	0.000000	3.812310
O	3.812310	1.906155	5.718465
O	5.718465	0.000000	5.718465
O	5.718465	1.906155	3.812310
Ga	5.718465	5.718465	1.906155
Mg	3.812310	3.812310	0.000000
O	3.812310	5.718465	1.906155
O	5.718465	3.812310	1.906155
O	5.718465	5.718465	0.000000
Ga	5.718465	5.718465	5.718465
Mg	3.812310	3.812310	3.812310
O	3.812310	5.718465	5.718465
O	5.718465	3.812310	5.718465
O	5.718465	5.718465	3.812310
