40

Ga	0.000000	0.000000	0.000000
Mg	1.934972	1.934972	1.934972
O	0.000000	1.934972	1.934972
O	1.934972	0.000000	1.934972
O	1.934972	1.934972	0.000000
Ga	0.000000	0.000000	3.869943
Mg	1.934972	1.934972	5.804915
O	0.000000	1.934972	5.804915
O	1.934972	0.000000	5.804915
O	1.934972	1.934972	3.869943
Ga	0.000000	3.869943	0.000000
Mg	1.934972	5.804915	1.934972
O	0.000000	5.804915	1.934972
O	1.934972	3.869943	1.934972
O	1.934972	5.804915	0.000000
Ga	0.000000	3.869943	3.869943
Mg	1.934972	5.804915	5.804915
O	0.000000	5.804915	5.804915
O	1.934972	3.869943	5.804915
O	1.934972	5.804915	3.869943
Ga	3.869943	0.000000	0.000000
Mg	5.804915	1.934972	1.934972
O	3.869943	1.934972	1.934972
O	5.804915	0.000000	1.934972
O	5.804915	1.934972	0.000000
Ga	3.869943	0.000000	3.869943
Mg	5.804915	1.934972	5.804915
O	3.869943	1.934972	5.804915
O	5.804915	0.000000	5.804915
O	5.804915	1.934972	3.869943
Ga	3.869943	3.869943	0.000000
Mg	5.804915	5.804915	1.934972
O	3.869943	5.804915	1.934972
O	5.804915	3.869943	1.934972
O	5.804915	5.804915	0.000000
Ga	3.869943	3.869943	3.869943
Mg	5.804915	5.804915	5.804915
O	3.869943	5.804915	5.804915
O	5.804915	3.869943	5.804915
O	5.804915	5.804915	3.869943
