40

Fe	0.000000	0.000000	0.000000
Ir	1.914139	1.914139	1.914139
O	1.914139	1.914139	0.000000
O	1.914139	0.000000	1.914139
O	0.000000	1.914139	1.914139
Fe	0.000000	0.000000	3.828270
Ir	1.914139	1.914139	5.742409
O	1.914139	1.914139	3.828270
O	1.914139	0.000000	5.742409
O	0.000000	1.914139	5.742409
Fe	0.000000	3.828270	0.000000
Ir	1.914139	5.742409	1.914139
O	1.914139	5.742409	0.000000
O	1.914139	3.828270	1.914139
O	0.000000	5.742409	1.914139
Fe	0.000000	3.828270	3.828270
Ir	1.914139	5.742409	5.742409
O	1.914139	5.742409	3.828270
O	1.914139	3.828270	5.742409
O	0.000000	5.742409	5.742409
Fe	3.828270	0.000000	0.000000
Ir	5.742409	1.914139	1.914139
O	5.742409	1.914139	0.000000
O	5.742409	0.000000	1.914139
O	3.828270	1.914139	1.914139
Fe	3.828270	0.000000	3.828270
Ir	5.742409	1.914139	5.742409
O	5.742409	1.914139	3.828270
O	5.742409	0.000000	5.742409
O	3.828270	1.914139	5.742409
Fe	3.828270	3.828270	0.000000
Ir	5.742409	5.742409	1.914139
O	5.742409	5.742409	0.000000
O	5.742409	3.828270	1.914139
O	3.828270	5.742409	1.914139
Fe	3.828270	3.828270	3.828270
Ir	5.742409	5.742409	5.742409
O	5.742409	5.742409	3.828270
O	5.742409	3.828270	5.742409
O	3.828270	5.742409	5.742409
