40

F	0.000000	1.955595	1.955595
F	1.955595	0.000000	1.955595
F	1.955595	1.955595	0.000000
Mn	1.955595	1.955595	1.955595
O	0.000000	0.000000	0.000000
F	0.000000	1.955595	5.866785
F	1.955595	0.000000	5.866785
F	1.955595	1.955595	3.911190
Mn	1.955595	1.955595	5.866785
O	0.000000	0.000000	3.911190
F	0.000000	5.866785	1.955595
F	1.955595	3.911190	1.955595
F	1.955595	5.866785	0.000000
Mn	1.955595	5.866785	1.955595
O	0.000000	3.911190	0.000000
F	0.000000	5.866785	5.866785
F	1.955595	3.911190	5.866785
F	1.955595	5.866785	3.911190
Mn	1.955595	5.866785	5.866785
O	0.000000	3.911190	3.911190
F	3.911190	1.955595	1.955595
F	5.866785	0.000000	1.955595
F	5.866785	1.955595	0.000000
Mn	5.866785	1.955595	1.955595
O	3.911190	0.000000	0.000000
F	3.911190	1.955595	5.866785
F	5.866785	0.000000	5.866785
F	5.866785	1.955595	3.911190
Mn	5.866785	1.955595	5.866785
O	3.911190	0.000000	3.911190
F	3.911190	5.866785	1.955595
F	5.866785	3.911190	1.955595
F	5.866785	5.866785	0.000000
Mn	5.866785	5.866785	1.955595
O	3.911190	3.911190	0.000000
F	3.911190	5.866785	5.866785
F	5.866785	3.911190	5.866785
F	5.866785	5.866785	3.911190
Mn	5.866785	5.866785	5.866785
O	3.911190	3.911190	3.911190
