112

Be	0.000000	0.000000	0.000000
Be	2.247709	-2.247747	-2.247747
Gd	-1.123850	-1.123878	-3.371625
Gd	5.619258	-1.123878	-1.123878
Gd	1.123850	1.123878	-3.371625
Gd	3.371559	1.123878	-1.123878
O	1.064993	1.065153	-1.065153
O	-1.182716	1.182594	-3.312900
O	3.312692	-1.182594	-1.182594
O	1.182716	-1.182594	-3.312900
O	1.064993	3.430351	-3.430351
O	3.430426	1.065153	-3.430351
O	3.430426	3.430351	-1.065153
O	5.678125	1.182594	-1.182594
Be	4.495410	4.495502	0.000000
Be	6.743120	2.247755	-2.247747
Gd	3.371561	3.371624	-3.371625
Gd	10.114669	3.371624	-1.123878
Gd	5.619260	5.619381	-3.371625
Gd	7.866969	5.619381	-1.123878
O	5.560403	5.560655	-1.065153
O	3.312694	5.678096	-3.312900
O	7.808103	3.312908	-1.182594
O	5.678127	3.312908	-3.312900
O	5.560403	7.925853	-3.430351
O	7.925836	5.560655	-3.430351
O	7.925836	7.925853	-1.065153
O	10.173535	5.678096	-1.182594
Be	-4.495410	0.000000	-4.495502
Be	-2.247701	-2.247747	-6.743249
Gd	-5.619260	-1.123878	-7.867128
Gd	1.123848	-1.123878	-5.619381
Gd	-3.371561	1.123878	-7.867128
Gd	-1.123852	1.123878	-5.619381
O	-3.430418	1.065153	-5.560655
O	-5.678127	1.182594	-7.808402
O	-1.182718	-1.182594	-5.678096
O	-3.312694	-1.182594	-7.808402
O	-3.430418	3.430351	-7.925853
O	-1.064985	1.065153	-7.925853
O	-1.064985	3.430351	-5.560655
O	1.182714	1.182594	-5.678096
Be	0.000000	4.495502	-4.495502
Be	2.247709	2.247755	-6.743249
Gd	-1.123850	3.371624	-7.867128
Gd	5.619258	3.371624	-5.619381
Gd	1.123850	5.619381	-7.867128
Gd	3.371559	5.619381	-5.619381
O	1.064993	5.560655	-5.560655
O	-1.182716	5.678096	-7.808402
O	3.312692	3.312908	-5.678096
O	1.182716	3.312908	-7.808402
O	1.064993	7.925853	-7.925853
O	3.430426	5.560655	-7.925853
O	3.430426	7.925853	-5.560655
O	5.678125	5.678096	-5.678096
Be	4.495410	-4.495502	0.000000
Be	6.743120	-6.743249	-2.247747
Gd	3.371561	-5.619381	-3.371625
Gd	10.114669	-5.619381	-1.123878
Gd	5.619260	-3.371624	-3.371625
Gd	7.866969	-3.371624	-1.123878
O	5.560403	-3.430349	-1.065153
O	3.312694	-3.312908	-3.312900
O	7.808103	-5.678096	-1.182594
O	5.678127	-5.678096	-3.312900
O	5.560403	-1.065151	-3.430351
O	7.925836	-3.430349	-3.430351
O	7.925836	-1.065151	-1.065153
O	10.173535	-3.312908	-1.182594
Be	8.990821	0.000000	0.000000
Be	11.238530	-2.247747	-2.247747
Gd	7.866971	-1.123878	-3.371625
Gd	14.610079	-1.123878	-1.123878
Gd	10.114671	1.123878	-3.371625
Gd	12.362380	1.123878	-1.123878
O	10.055814	1.065153	-1.065153
O	7.808105	1.182594	-3.312900
O	12.303513	-1.182594	-1.182594
O	10.173537	-1.182594	-3.312900
O	10.055814	3.430351	-3.430351
O	12.421246	1.065153	-3.430351
O	12.421246	3.430351	-1.065153
O	14.668946	1.182594	-1.182594
Be	0.000000	-4.495502	-4.495502
Be	2.247709	-6.743249	-6.743249
Gd	-1.123850	-5.619381	-7.867128
Gd	5.619258	-5.619381	-5.619381
Gd	1.123850	-3.371624	-7.867128
Gd	3.371559	-3.371624	-5.619381
O	1.064993	-3.430349	-5.560655
O	-1.182716	-3.312908	-7.808402
O	3.312692	-5.678096	-5.678096
O	1.182716	-5.678096	-7.808402
O	1.064993	-1.065151	-7.925853
O	3.430426	-3.430349	-7.925853
O	3.430426	-1.065151	-5.560655
O	5.678125	-3.312908	-5.678096
Be	4.495410	0.000000	-4.495502
Be	6.743120	-2.247747	-6.743249
Gd	3.371561	-1.123878	-7.867128
Gd	10.114669	-1.123878	-5.619381
Gd	5.619260	1.123878	-7.867128
Gd	7.866969	1.123878	-5.619381
O	5.560403	1.065153	-5.560655
O	3.312694	1.182594	-7.808402
O	7.808103	-1.182594	-5.678096
O	5.678127	-1.182594	-7.808402
O	5.560403	3.430351	-7.925853
O	7.925836	1.065153	-7.925853
O	7.925836	3.430351	-5.560655
O	10.173535	1.182594	-5.678096
