40

Co	1.825496	1.825496	1.825496
Nb	0.000000	0.000000	0.000000
O	1.825496	1.825496	0.000000
O	1.825496	0.000000	1.825496
O	0.000000	1.825496	1.825496
Co	1.825496	1.825496	5.476479
Nb	0.000000	0.000000	3.650983
O	1.825496	1.825496	3.650983
O	1.825496	0.000000	5.476479
O	0.000000	1.825496	5.476479
Co	1.825496	5.476479	1.825496
Nb	0.000000	3.650983	0.000000
O	1.825496	5.476479	0.000000
O	1.825496	3.650983	1.825496
O	0.000000	5.476479	1.825496
Co	1.825496	5.476479	5.476479
Nb	0.000000	3.650983	3.650983
O	1.825496	5.476479	3.650983
O	1.825496	3.650983	5.476479
O	0.000000	5.476479	5.476479
Co	5.476479	1.825496	1.825496
Nb	3.650983	0.000000	0.000000
O	5.476479	1.825496	0.000000
O	5.476479	0.000000	1.825496
O	3.650983	1.825496	1.825496
Co	5.476479	1.825496	5.476479
Nb	3.650983	0.000000	3.650983
O	5.476479	1.825496	3.650983
O	5.476479	0.000000	5.476479
O	3.650983	1.825496	5.476479
Co	5.476479	5.476479	1.825496
Nb	3.650983	3.650983	0.000000
O	5.476479	5.476479	0.000000
O	5.476479	3.650983	1.825496
O	3.650983	5.476479	1.825496
Co	5.476479	5.476479	5.476479
Nb	3.650983	3.650983	3.650983
O	5.476479	5.476479	3.650983
O	5.476479	3.650983	5.476479
O	3.650983	5.476479	5.476479
