40

Cd	0.000000	0.000000	0.000000
Hg	2.088947	2.088947	2.088947
O	2.088947	2.088947	0.000000
O	2.088947	0.000000	2.088947
O	0.000000	2.088947	2.088947
Cd	0.000000	0.000000	4.177894
Hg	2.088947	2.088947	6.266841
O	2.088947	2.088947	4.177894
O	2.088947	0.000000	6.266841
O	0.000000	2.088947	6.266841
Cd	0.000000	4.177894	0.000000
Hg	2.088947	6.266841	2.088947
O	2.088947	6.266841	0.000000
O	2.088947	4.177894	2.088947
O	0.000000	6.266841	2.088947
Cd	0.000000	4.177894	4.177894
Hg	2.088947	6.266841	6.266841
O	2.088947	6.266841	4.177894
O	2.088947	4.177894	6.266841
O	0.000000	6.266841	6.266841
Cd	4.177894	0.000000	0.000000
Hg	6.266841	2.088947	2.088947
O	6.266841	2.088947	0.000000
O	6.266841	0.000000	2.088947
O	4.177894	2.088947	2.088947
Cd	4.177894	0.000000	4.177894
Hg	6.266841	2.088947	6.266841
O	6.266841	2.088947	4.177894
O	6.266841	0.000000	6.266841
O	4.177894	2.088947	6.266841
Cd	4.177894	4.177894	0.000000
Hg	6.266841	6.266841	2.088947
O	6.266841	6.266841	0.000000
O	6.266841	4.177894	2.088947
O	4.177894	6.266841	2.088947
Cd	4.177894	4.177894	4.177894
Hg	6.266841	6.266841	6.266841
O	6.266841	6.266841	4.177894
O	6.266841	4.177894	6.266841
O	4.177894	6.266841	6.266841
