40

Ag	1.992010	1.992010	1.992010
O	1.992010	0.000000	1.992010
O	0.000000	1.992010	1.992010
O	1.992010	1.992010	0.000000
Tc_pv	0.000000	0.000000	0.000000
Ag	1.992010	1.992010	5.976031
O	1.992010	0.000000	5.976031
O	0.000000	1.992010	5.976031
O	1.992010	1.992010	3.984021
Tc_pv	0.000000	0.000000	3.984021
Ag	1.992010	5.976031	1.992010
O	1.992010	3.984021	1.992010
O	0.000000	5.976031	1.992010
O	1.992010	5.976031	0.000000
Tc_pv	0.000000	3.984021	0.000000
Ag	1.992010	5.976031	5.976031
O	1.992010	3.984021	5.976031
O	0.000000	5.976031	5.976031
O	1.992010	5.976031	3.984021
Tc_pv	0.000000	3.984021	3.984021
Ag	5.976031	1.992010	1.992010
O	5.976031	0.000000	1.992010
O	3.984021	1.992010	1.992010
O	5.976031	1.992010	0.000000
Tc_pv	3.984021	0.000000	0.000000
Ag	5.976031	1.992010	5.976031
O	5.976031	0.000000	5.976031
O	3.984021	1.992010	5.976031
O	5.976031	1.992010	3.984021
Tc_pv	3.984021	0.000000	3.984021
Ag	5.976031	5.976031	1.992010
O	5.976031	3.984021	1.992010
O	3.984021	5.976031	1.992010
O	5.976031	5.976031	0.000000
Tc_pv	3.984021	3.984021	0.000000
Ag	5.976031	5.976031	5.976031
O	5.976031	3.984021	5.976031
O	3.984021	5.976031	5.976031
O	5.976031	5.976031	3.984021
Tc_pv	3.984021	3.984021	3.984021
