40

Cd	0.000000	0.000000	0.000000
Nd	2.220534	2.220534	2.220534
O	2.220534	2.220534	0.000000
O	2.220534	0.000000	2.220534
O	0.000000	2.220534	2.220534
Cd	0.000000	0.000000	4.441061
Nd	2.220534	2.220534	6.661594
O	2.220534	2.220534	4.441061
O	2.220534	0.000000	6.661594
O	0.000000	2.220534	6.661594
Cd	0.000000	4.441061	0.000000
Nd	2.220534	6.661594	2.220534
O	2.220534	6.661594	0.000000
O	2.220534	4.441061	2.220534
O	0.000000	6.661594	2.220534
Cd	0.000000	4.441061	4.441061
Nd	2.220534	6.661594	6.661594
O	2.220534	6.661594	4.441061
O	2.220534	4.441061	6.661594
O	0.000000	6.661594	6.661594
Cd	4.441061	0.000000	0.000000
Nd	6.661594	2.220534	2.220534
O	6.661594	2.220534	0.000000
O	6.661594	0.000000	2.220534
O	4.441061	2.220534	2.220534
Cd	4.441061	0.000000	4.441061
Nd	6.661594	2.220534	6.661594
O	6.661594	2.220534	4.441061
O	6.661594	0.000000	6.661594
O	4.441061	2.220534	6.661594
Cd	4.441061	4.441061	0.000000
Nd	6.661594	6.661594	2.220534
O	6.661594	6.661594	0.000000
O	6.661594	4.441061	2.220534
O	4.441061	6.661594	2.220534
Cd	4.441061	4.441061	4.441061
Nd	6.661594	6.661594	6.661594
O	6.661594	6.661594	4.441061
O	6.661594	4.441061	6.661594
O	4.441061	6.661594	6.661594
