112

Ce	0.000000	0.000000	0.000000
Ce	2.451799	-2.452478	-2.452478
Dy	-1.225900	-1.226239	-3.678717
Dy	3.677699	1.226239	-1.226239
Dy	6.129498	-1.226239	-1.226239
Dy	1.225900	1.226239	-3.678717
O	3.811714	-1.091552	-1.091552
O	-1.091884	1.091552	-3.813405
O	1.091884	-1.091552	-3.813405
O	1.359915	1.360927	-1.360927
O	5.995483	1.091552	-1.091552
O	1.359915	3.544030	-3.544030
O	3.543683	3.544030	-1.360927
O	3.543683	1.360927	-3.544030
Ce	4.903598	4.904957	0.000000
Ce	7.355397	2.452478	-2.452478
Dy	3.677699	3.678717	-3.678717
Dy	8.581297	6.131196	-1.226239
Dy	11.033096	3.678717	-1.226239
Dy	6.129498	6.131196	-3.678717
O	8.715313	3.813405	-1.091552
O	3.811714	5.996508	-3.813405
O	5.995482	3.813405	-3.813405
O	6.263513	6.265883	-1.360927
O	10.899081	5.996508	-1.091552
O	6.263513	8.448987	-3.544030
O	8.447282	8.448987	-1.360927
O	8.447282	6.265883	-3.544030
Ce	-4.903598	0.000000	-4.904957
Ce	-2.451799	-2.452478	-7.357435
Dy	-6.129498	-1.226239	-8.583674
Dy	-1.225900	1.226239	-6.131196
Dy	1.225900	-1.226239	-6.131196
Dy	-3.677699	1.226239	-8.583674
O	-1.091884	-1.091552	-5.996508
O	-5.995483	1.091552	-8.718362
O	-3.811714	-1.091552	-8.718362
O	-3.543683	1.360927	-6.265883
O	1.091884	1.091552	-5.996508
O	-3.543683	3.544030	-8.448987
O	-1.359915	3.544030	-6.265883
O	-1.359915	1.360927	-8.448987
Ce	0.000000	4.904957	-4.904957
Ce	2.451799	2.452478	-7.357435
Dy	-1.225900	3.678717	-8.583674
Dy	3.677699	6.131196	-6.131196
Dy	6.129498	3.678717	-6.131196
Dy	1.225900	6.131196	-8.583674
O	3.811714	3.813405	-5.996508
O	-1.091884	5.996508	-8.718362
O	1.091884	3.813405	-8.718362
O	1.359915	6.265883	-6.265883
O	5.995483	5.996508	-5.996508
O	1.359915	8.448987	-8.448987
O	3.543683	8.448987	-6.265883
O	3.543683	6.265883	-8.448987
Ce	4.903598	-4.904957	0.000000
Ce	7.355397	-7.357435	-2.452478
Dy	3.677699	-6.131196	-3.678717
Dy	8.581297	-3.678717	-1.226239
Dy	11.033096	-6.131196	-1.226239
Dy	6.129498	-3.678717	-3.678717
O	8.715313	-5.996508	-1.091552
O	3.811714	-3.813405	-3.813405
O	5.995482	-5.996508	-3.813405
O	6.263513	-3.544030	-1.360927
O	10.899081	-3.813405	-1.091552
O	6.263513	-1.360927	-3.544030
O	8.447282	-1.360927	-1.360927
O	8.447282	-3.544030	-3.544030
Ce	9.807197	0.000000	0.000000
Ce	12.258996	-2.452478	-2.452478
Dy	8.581297	-1.226239	-3.678717
Dy	13.484895	1.226239	-1.226239
Dy	15.936695	-1.226239	-1.226239
Dy	11.033096	1.226239	-3.678717
O	13.618911	-1.091552	-1.091552
O	8.715312	1.091552	-3.813405
O	10.899081	-1.091552	-3.813405
O	11.167112	1.360927	-1.360927
O	15.802679	1.091552	-1.091552
O	11.167112	3.544030	-3.544030
O	13.350880	3.544030	-1.360927
O	13.350880	1.360927	-3.544030
Ce	0.000000	-4.904957	-4.904957
Ce	2.451799	-7.357435	-7.357435
Dy	-1.225900	-6.131196	-8.583674
Dy	3.677699	-3.678717	-6.131196
Dy	6.129498	-6.131196	-6.131196
Dy	1.225900	-3.678717	-8.583674
O	3.811714	-5.996508	-5.996508
O	-1.091884	-3.813405	-8.718362
O	1.091884	-5.996508	-8.718362
O	1.359915	-3.544030	-6.265883
O	5.995483	-3.813405	-5.996508
O	1.359915	-1.360927	-8.448987
O	3.543683	-1.360927	-6.265883
O	3.543683	-3.544030	-8.448987
Ce	4.903598	0.000000	-4.904957
Ce	7.355397	-2.452478	-7.357435
Dy	3.677699	-1.226239	-8.583674
Dy	8.581297	1.226239	-6.131196
Dy	11.033096	-1.226239	-6.131196
Dy	6.129498	1.226239	-8.583674
O	8.715313	-1.091552	-5.996508
O	3.811714	1.091552	-8.718362
O	5.995482	-1.091552	-8.718362
O	6.263513	1.360927	-6.265883
O	10.899081	1.091552	-5.996508
O	6.263513	3.544030	-8.448987
O	8.447282	3.544030	-6.265883
O	8.447282	1.360927	-8.448987
