40

Lu	2.128114	2.128114	2.128114
O	2.128114	2.128114	0.000000
O	2.128114	0.000000	2.128114
O	0.000000	2.128114	2.128114
Pd	0.000000	0.000000	0.000000
Lu	2.128114	2.128114	6.384342
O	2.128114	2.128114	4.256228
O	2.128114	0.000000	6.384342
O	0.000000	2.128114	6.384342
Pd	0.000000	0.000000	4.256228
Lu	2.128114	6.384342	2.128114
O	2.128114	6.384342	0.000000
O	2.128114	4.256228	2.128114
O	0.000000	6.384342	2.128114
Pd	0.000000	4.256228	0.000000
Lu	2.128114	6.384342	6.384342
O	2.128114	6.384342	4.256228
O	2.128114	4.256228	6.384342
O	0.000000	6.384342	6.384342
Pd	0.000000	4.256228	4.256228
Lu	6.384342	2.128114	2.128114
O	6.384342	2.128114	0.000000
O	6.384342	0.000000	2.128114
O	4.256228	2.128114	2.128114
Pd	4.256228	0.000000	0.000000
Lu	6.384342	2.128114	6.384342
O	6.384342	2.128114	4.256228
O	6.384342	0.000000	6.384342
O	4.256228	2.128114	6.384342
Pd	4.256228	0.000000	4.256228
Lu	6.384342	6.384342	2.128114
O	6.384342	6.384342	0.000000
O	6.384342	4.256228	2.128114
O	4.256228	6.384342	2.128114
Pd	4.256228	4.256228	0.000000
Lu	6.384342	6.384342	6.384342
O	6.384342	6.384342	4.256228
O	6.384342	4.256228	6.384342
O	4.256228	6.384342	6.384342
Pd	4.256228	4.256228	4.256228
