40

Al	1.807900	1.807900	1.807900
O	1.807900	1.807900	0.000000
O	0.000000	1.807900	1.807900
O	1.807900	0.000000	1.807900
Sc_sv	0.000000	0.000000	0.000000
Al	1.807900	1.807900	5.423692
O	1.807900	1.807900	3.615792
O	0.000000	1.807900	5.423692
O	1.807900	0.000000	5.423692
Sc_sv	0.000000	0.000000	3.615792
Al	1.807900	5.423692	1.807900
O	1.807900	5.423692	0.000000
O	0.000000	5.423692	1.807900
O	1.807900	3.615792	1.807900
Sc_sv	0.000000	3.615792	0.000000
Al	1.807900	5.423692	5.423692
O	1.807900	5.423692	3.615792
O	0.000000	5.423692	5.423692
O	1.807900	3.615792	5.423692
Sc_sv	0.000000	3.615792	3.615792
Al	5.423692	1.807900	1.807900
O	5.423692	1.807900	0.000000
O	3.615792	1.807900	1.807900
O	5.423692	0.000000	1.807900
Sc_sv	3.615792	0.000000	0.000000
Al	5.423692	1.807900	5.423692
O	5.423692	1.807900	3.615792
O	3.615792	1.807900	5.423692
O	5.423692	0.000000	5.423692
Sc_sv	3.615792	0.000000	3.615792
Al	5.423692	5.423692	1.807900
O	5.423692	5.423692	0.000000
O	3.615792	5.423692	1.807900
O	5.423692	3.615792	1.807900
Sc_sv	3.615792	3.615792	0.000000
Al	5.423692	5.423692	5.423692
O	5.423692	5.423692	3.615792
O	3.615792	5.423692	5.423692
O	5.423692	3.615792	5.423692
Sc_sv	3.615792	3.615792	3.615792
