40

O	2.156030	2.156030	0.000000
O	0.000000	2.156030	2.156030
O	2.156030	0.000000	2.156030
Pu	0.000000	0.000000	0.000000
Tb_3	2.156030	2.156030	2.156030
O	2.156030	2.156030	4.312059
O	0.000000	2.156030	6.468089
O	2.156030	0.000000	6.468089
Pu	0.000000	0.000000	4.312059
Tb_3	2.156030	2.156030	6.468089
O	2.156030	6.468089	0.000000
O	0.000000	6.468089	2.156030
O	2.156030	4.312059	2.156030
Pu	0.000000	4.312059	0.000000
Tb_3	2.156030	6.468089	2.156030
O	2.156030	6.468089	4.312059
O	0.000000	6.468089	6.468089
O	2.156030	4.312059	6.468089
Pu	0.000000	4.312059	4.312059
Tb_3	2.156030	6.468089	6.468089
O	6.468089	2.156030	0.000000
O	4.312059	2.156030	2.156030
O	6.468089	0.000000	2.156030
Pu	4.312059	0.000000	0.000000
Tb_3	6.468089	2.156030	2.156030
O	6.468089	2.156030	4.312059
O	4.312059	2.156030	6.468089
O	6.468089	0.000000	6.468089
Pu	4.312059	0.000000	4.312059
Tb_3	6.468089	2.156030	6.468089
O	6.468089	6.468089	0.000000
O	4.312059	6.468089	2.156030
O	6.468089	4.312059	2.156030
Pu	4.312059	4.312059	0.000000
Tb_3	6.468089	6.468089	2.156030
O	6.468089	6.468089	4.312059
O	4.312059	6.468089	6.468089
O	6.468089	4.312059	6.468089
Pu	4.312059	4.312059	4.312059
Tb_3	6.468089	6.468089	6.468089
