40

Ho	2.170260	2.170260	2.170260
O	2.170260	2.170260	0.000000
O	2.170260	0.000000	2.170260
O	0.000000	2.170260	2.170260
Tl	0.000000	0.000000	0.000000
Ho	2.170260	2.170260	6.510787
O	2.170260	2.170260	4.340527
O	2.170260	0.000000	6.510787
O	0.000000	2.170260	6.510787
Tl	0.000000	0.000000	4.340527
Ho	2.170260	6.510787	2.170260
O	2.170260	6.510787	0.000000
O	2.170260	4.340527	2.170260
O	0.000000	6.510787	2.170260
Tl	0.000000	4.340527	0.000000
Ho	2.170260	6.510787	6.510787
O	2.170260	6.510787	4.340527
O	2.170260	4.340527	6.510787
O	0.000000	6.510787	6.510787
Tl	0.000000	4.340527	4.340527
Ho	6.510787	2.170260	2.170260
O	6.510787	2.170260	0.000000
O	6.510787	0.000000	2.170260
O	4.340527	2.170260	2.170260
Tl	4.340527	0.000000	0.000000
Ho	6.510787	2.170260	6.510787
O	6.510787	2.170260	4.340527
O	6.510787	0.000000	6.510787
O	4.340527	2.170260	6.510787
Tl	4.340527	0.000000	4.340527
Ho	6.510787	6.510787	2.170260
O	6.510787	6.510787	0.000000
O	6.510787	4.340527	2.170260
O	4.340527	6.510787	2.170260
Tl	4.340527	4.340527	0.000000
Ho	6.510787	6.510787	6.510787
O	6.510787	6.510787	4.340527
O	6.510787	4.340527	6.510787
O	4.340527	6.510787	6.510787
Tl	4.340527	4.340527	4.340527
