112

Co	0.000000	0.000000	0.000000
Co	2.308872	-2.309224	-2.309224
O	-1.145881	1.145668	-3.472770
O	3.471853	-1.145668	-1.145668
O	1.145881	-1.145668	-3.472770
O	1.162991	1.163546	-1.163546
O	5.763614	1.145668	-1.145668
O	1.162991	3.454892	-3.454891
O	3.454752	3.454891	-1.163546
O	3.454752	1.163546	-3.454891
Tl	-1.154431	-1.154612	-3.463836
Tl	1.154431	1.154612	-3.463836
Tl	3.463303	1.154612	-1.154612
Tl	5.772174	-1.154612	-1.154612
Co	4.617736	4.618444	0.000000
Co	6.926608	2.309221	-2.309224
O	3.471855	5.764112	-3.472770
O	8.089589	3.472777	-1.145668
O	5.763617	3.472777	-3.472770
O	5.780727	5.781990	-1.163546
O	10.381350	5.764112	-1.145668
O	5.780727	8.073336	-3.454891
O	8.072488	8.073336	-1.163546
O	8.072488	5.781990	-3.454891
Tl	3.463305	3.463832	-3.463836
Tl	5.772167	5.773056	-3.463836
Tl	8.081039	5.773056	-1.154612
Tl	10.389910	3.463832	-1.154612
Co	-4.617736	0.000000	-4.618444
Co	-2.308864	-2.309224	-6.927668
O	-5.763617	1.145668	-8.091214
O	-1.145883	-1.145668	-5.764112
O	-3.471855	-1.145668	-8.091214
O	-3.454745	1.163546	-5.781990
O	1.145878	1.145668	-5.764112
O	-3.454745	3.454892	-8.073336
O	-1.162984	3.454891	-5.781990
O	-1.162984	1.163546	-8.073336
Tl	-5.772167	-1.154612	-8.082280
Tl	-3.463305	1.154612	-8.082280
Tl	-1.154433	1.154612	-5.773056
Tl	1.154438	-1.154612	-5.773056
Co	0.000000	4.618444	-4.618444
Co	2.308872	2.309221	-6.927668
O	-1.145881	5.764112	-8.091214
O	3.471853	3.472777	-5.764112
O	1.145881	3.472777	-8.091214
O	1.162991	5.781990	-5.781990
O	5.763614	5.764112	-5.764112
O	1.162991	8.073336	-8.073336
O	3.454752	8.073336	-5.781990
O	3.454752	5.781990	-8.073336
Tl	-1.154431	3.463832	-8.082280
Tl	1.154431	5.773056	-8.082280
Tl	3.463303	5.773056	-5.773056
Tl	5.772174	3.463832	-5.773056
Co	4.617736	-4.618444	0.000000
Co	6.926608	-6.927668	-2.309224
O	3.471855	-3.472777	-3.472770
O	8.089589	-5.764112	-1.145668
O	5.763617	-5.764112	-3.472770
O	5.780727	-3.454898	-1.163546
O	10.381350	-3.472777	-1.145668
O	5.780727	-1.163553	-3.454891
O	8.072488	-1.163553	-1.163546
O	8.072488	-3.454898	-3.454891
Tl	3.463305	-5.773056	-3.463836
Tl	5.772167	-3.463832	-3.463836
Tl	8.081039	-3.463832	-1.154612
Tl	10.389910	-5.773056	-1.154612
Co	9.235472	0.000000	0.000000
Co	11.544344	-2.309224	-2.309224
O	8.089591	1.145668	-3.472770
O	12.707325	-1.145668	-1.145668
O	10.381353	-1.145668	-3.472770
O	10.398463	1.163546	-1.163546
O	14.999086	1.145668	-1.145668
O	10.398463	3.454892	-3.454891
O	12.690224	3.454891	-1.163546
O	12.690224	1.163546	-3.454891
Tl	8.081041	-1.154612	-3.463836
Tl	10.389903	1.154612	-3.463836
Tl	12.698775	1.154612	-1.154612
Tl	15.007646	-1.154612	-1.154612
Co	0.000000	-4.618444	-4.618444
Co	2.308872	-6.927668	-6.927668
O	-1.145881	-3.472777	-8.091214
O	3.471853	-5.764112	-5.764112
O	1.145881	-5.764112	-8.091214
O	1.162991	-3.454898	-5.781990
O	5.763614	-3.472777	-5.764112
O	1.162991	-1.163553	-8.073336
O	3.454752	-1.163553	-5.781990
O	3.454752	-3.454898	-8.073336
Tl	-1.154431	-5.773056	-8.082280
Tl	1.154431	-3.463832	-8.082280
Tl	3.463303	-3.463832	-5.773056
Tl	5.772174	-5.773056	-5.773056
Co	4.617736	0.000000	-4.618444
Co	6.926608	-2.309224	-6.927668
O	3.471855	1.145668	-8.091214
O	8.089589	-1.145668	-5.764112
O	5.763617	-1.145668	-8.091214
O	5.780727	1.163546	-5.781990
O	10.381350	1.145668	-5.764112
O	5.780727	3.454892	-8.073336
O	8.072488	3.454891	-5.781990
O	8.072488	1.163546	-8.073336
Tl	3.463305	-1.154612	-8.082280
Tl	5.772167	1.154612	-8.082280
Tl	8.081039	1.154612	-5.773056
Tl	10.389910	-1.154612	-5.773056
