112

Co	0.000000	0.000000	0.000000
Co	2.308869	-2.309220	-2.309220
O	-1.145882	1.145670	-3.472771
O	3.471855	-1.145670	-1.145670
O	1.145882	-1.145670	-3.472771
O	1.162986	1.163550	-1.163550
O	5.763610	1.145670	-1.145670
O	1.162986	3.454890	-3.454890
O	3.454751	3.454890	-1.163550
O	3.454751	1.163550	-3.454890
Tl	-1.154434	-1.154615	-3.463835
Tl	5.772172	-1.154615	-1.154615
Tl	1.154434	1.154615	-3.463835
Tl	3.463303	1.154615	-1.154615
Co	4.617735	4.618444	0.000000
Co	6.926603	2.309224	-2.309220
O	3.471852	5.764114	-3.472771
O	8.089590	3.472774	-1.145670
O	5.763617	3.472774	-3.472771
O	5.780721	5.781994	-1.163550
O	10.381344	5.764114	-1.145670
O	5.780721	8.073334	-3.454890
O	8.072486	8.073334	-1.163550
O	8.072486	5.781994	-3.454890
Tl	3.463300	3.463829	-3.463835
Tl	10.389906	3.463829	-1.154615
Tl	5.772169	5.773059	-3.463835
Tl	8.081038	5.773059	-1.154615
Co	-4.617735	0.000000	-4.618444
Co	-2.308866	-2.309220	-6.927664
O	-5.763617	1.145670	-8.091215
O	-1.145879	-1.145670	-5.764114
O	-3.471852	-1.145670	-8.091215
O	-3.454748	1.163550	-5.781994
O	1.145875	1.145670	-5.764114
O	-3.454748	3.454890	-8.073334
O	-1.162984	3.454890	-5.781994
O	-1.162984	1.163550	-8.073334
Tl	-5.772169	-1.154615	-8.082279
Tl	1.154437	-1.154615	-5.773059
Tl	-3.463300	1.154615	-8.082279
Tl	-1.154431	1.154615	-5.773059
Co	0.000000	4.618444	-4.618444
Co	2.308869	2.309224	-6.927664
O	-1.145882	5.764114	-8.091215
O	3.471855	3.472774	-5.764114
O	1.145882	3.472774	-8.091215
O	1.162986	5.781994	-5.781994
O	5.763610	5.764114	-5.764114
O	1.162986	8.073334	-8.073334
O	3.454751	8.073334	-5.781994
O	3.454751	5.781994	-8.073334
Tl	-1.154434	3.463829	-8.082279
Tl	5.772172	3.463829	-5.773059
Tl	1.154434	5.773059	-8.082279
Tl	3.463303	5.773059	-5.773059
Co	4.617735	-4.618444	0.000000
Co	6.926603	-6.927664	-2.309220
O	3.471852	-3.472774	-3.472771
O	8.089590	-5.764114	-1.145670
O	5.763617	-5.764114	-3.472771
O	5.780721	-3.454894	-1.163550
O	10.381344	-3.472774	-1.145670
O	5.780721	-1.163554	-3.454890
O	8.072486	-1.163554	-1.163550
O	8.072486	-3.454894	-3.454890
Tl	3.463300	-5.773059	-3.463835
Tl	10.389906	-5.773059	-1.154615
Tl	5.772169	-3.463829	-3.463835
Tl	8.081038	-3.463829	-1.154615
Co	9.235469	0.000000	0.000000
Co	11.544338	-2.309220	-2.309220
O	8.089587	1.145670	-3.472771
O	12.707324	-1.145670	-1.145670
O	10.381352	-1.145670	-3.472771
O	10.398456	1.163550	-1.163550
O	14.999079	1.145670	-1.145670
O	10.398456	3.454890	-3.454890
O	12.690220	3.454890	-1.163550
O	12.690220	1.163550	-3.454890
Tl	8.081035	-1.154615	-3.463835
Tl	15.007641	-1.154615	-1.154615
Tl	10.389904	1.154615	-3.463835
Tl	12.698772	1.154615	-1.154615
Co	0.000000	-4.618444	-4.618444
Co	2.308869	-6.927664	-6.927664
O	-1.145882	-3.472774	-8.091215
O	3.471855	-5.764114	-5.764114
O	1.145882	-5.764114	-8.091215
O	1.162986	-3.454894	-5.781994
O	5.763610	-3.472774	-5.764114
O	1.162986	-1.163554	-8.073334
O	3.454751	-1.163554	-5.781994
O	3.454751	-3.454894	-8.073334
Tl	-1.154434	-5.773059	-8.082279
Tl	5.772172	-5.773059	-5.773059
Tl	1.154434	-3.463829	-8.082279
Tl	3.463303	-3.463829	-5.773059
Co	4.617735	0.000000	-4.618444
Co	6.926603	-2.309220	-6.927664
O	3.471852	1.145670	-8.091215
O	8.089590	-1.145670	-5.764114
O	5.763617	-1.145670	-8.091215
O	5.780721	1.163550	-5.781994
O	10.381344	1.145670	-5.764114
O	5.780721	3.454890	-8.073334
O	8.072486	3.454890	-5.781994
O	8.072486	1.163550	-8.073334
Tl	3.463300	-1.154615	-8.082279
Tl	10.389906	-1.154615	-5.773059
Tl	5.772169	1.154615	-8.082279
Tl	8.081038	1.154615	-5.773059
