112

Nb	0.000000	0.000000	0.000000
Nb	2.596187	-2.596100	-2.596100
O	1.085154	1.085251	-1.085251
O	-1.511033	1.510859	-3.681361
O	3.681341	-1.510859	-1.510859
O	1.511033	-1.510859	-3.681361
O	1.085154	4.106959	-4.106959
O	4.107210	4.106959	-1.085251
O	4.107210	1.085251	-4.106959
O	6.703397	1.510859	-1.510859
Rb	-1.298089	-1.298055	-3.894155
Rb	1.298089	1.298055	-3.894155
Rb	3.894275	1.298055	-1.298055
Rb	6.490462	-1.298055	-1.298055
Nb	5.192365	5.192213	0.000000
Nb	7.788552	2.596113	-2.596100
O	6.277518	6.277464	-1.085251
O	3.681332	6.703071	-3.681361
O	8.873705	3.681354	-1.510859
O	6.703398	3.681354	-3.681361
O	6.277518	9.299171	-4.106959
O	9.299575	9.299171	-1.085251
O	9.299575	6.277464	-4.106959
O	11.895762	6.703071	-1.510859
Rb	3.894276	3.894158	-3.894155
Rb	6.490453	6.490268	-3.894155
Rb	9.086640	6.490268	-1.298055
Rb	11.682827	3.894158	-1.298055
Nb	-5.192365	0.000000	-5.192213
Nb	-2.596178	-2.596100	-7.788313
O	-4.107211	1.085251	-6.277464
O	-6.703398	1.510859	-8.873573
O	-1.511024	-1.510859	-6.703071
O	-3.681331	-1.510859	-8.873573
O	-4.107211	4.106959	-9.299171
O	-1.085154	4.106959	-6.277464
O	-1.085154	1.085251	-9.299171
O	1.511033	1.510859	-6.703071
Rb	-6.490453	-1.298055	-9.086367
Rb	-3.894276	1.298055	-9.086367
Rb	-1.298089	1.298055	-6.490268
Rb	1.298098	-1.298055	-6.490268
Nb	0.000000	5.192213	-5.192213
Nb	2.596187	2.596113	-7.788313
O	1.085154	6.277464	-6.277464
O	-1.511033	6.703071	-8.873573
O	3.681341	3.681354	-6.703071
O	1.511033	3.681354	-8.873573
O	1.085154	9.299171	-9.299171
O	4.107210	9.299171	-6.277464
O	4.107210	6.277464	-9.299171
O	6.703397	6.703071	-6.703071
Rb	-1.298089	3.894158	-9.086367
Rb	1.298089	6.490268	-9.086367
Rb	3.894275	6.490268	-6.490268
Rb	6.490462	3.894158	-6.490268
Nb	5.192365	-5.192213	0.000000
Nb	7.788552	-7.788313	-2.596100
O	6.277518	-4.106962	-1.085251
O	3.681332	-3.681354	-3.681361
O	8.873705	-6.703071	-1.510859
O	6.703398	-6.703071	-3.681361
O	6.277518	-1.085254	-4.106959
O	9.299575	-1.085254	-1.085251
O	9.299575	-4.106962	-4.106959
O	11.895762	-3.681354	-1.510859
Rb	3.894276	-6.490268	-3.894155
Rb	6.490453	-3.894158	-3.894155
Rb	9.086640	-3.894158	-1.298055
Rb	11.682827	-6.490268	-1.298055
Nb	10.384730	0.000000	0.000000
Nb	12.980917	-2.596100	-2.596100
O	11.469883	1.085251	-1.085251
O	8.873696	1.510859	-3.681361
O	14.066070	-1.510859	-1.510859
O	11.895763	-1.510859	-3.681361
O	11.469883	4.106959	-4.106959
O	14.491940	4.106959	-1.085251
O	14.491940	1.085251	-4.106959
O	17.088127	1.510859	-1.510859
Rb	9.086641	-1.298055	-3.894155
Rb	11.682818	1.298055	-3.894155
Rb	14.279005	1.298055	-1.298055
Rb	16.875192	-1.298055	-1.298055
Nb	0.000000	-5.192213	-5.192213
Nb	2.596187	-7.788313	-7.788313
O	1.085154	-4.106962	-6.277464
O	-1.511033	-3.681354	-8.873573
O	3.681341	-6.703071	-6.703071
O	1.511033	-6.703071	-8.873573
O	1.085154	-1.085254	-9.299171
O	4.107210	-1.085254	-6.277464
O	4.107210	-4.106962	-9.299171
O	6.703397	-3.681354	-6.703071
Rb	-1.298089	-6.490268	-9.086367
Rb	1.298089	-3.894158	-9.086367
Rb	3.894275	-3.894158	-6.490268
Rb	6.490462	-6.490268	-6.490268
Nb	5.192365	0.000000	-5.192213
Nb	7.788552	-2.596100	-7.788313
O	6.277518	1.085251	-6.277464
O	3.681332	1.510859	-8.873573
O	8.873705	-1.510859	-6.703071
O	6.703398	-1.510859	-8.873573
O	6.277518	4.106959	-9.299171
O	9.299575	4.106959	-6.277464
O	9.299575	1.085251	-9.299171
O	11.895762	1.510859	-6.703071
Rb	3.894276	-1.298055	-9.086367
Rb	6.490453	1.298055	-9.086367
Rb	9.086640	1.298055	-6.490268
Rb	11.682827	-1.298055	-6.490268
