112

Nb	0.000000	0.000000	0.000000
Nb	2.655779	-2.655603	-2.655603
O	3.745600	-1.565420	-1.565420
O	-1.565958	1.565420	-3.745786
O	1.565958	-1.565420	-3.745786
O	1.089821	1.090183	-1.090183
O	6.877515	1.565420	-1.565420
O	1.089821	4.221023	-4.221023
O	4.221736	4.221023	-1.090183
O	4.221736	1.090183	-4.221023
Rb	-1.327889	-1.327802	-3.983405
Rb	3.983668	1.327802	-1.327802
Rb	6.639447	-1.327802	-1.327802
Rb	1.327889	1.327802	-3.983405
Nb	5.311558	5.311206	0.000000
Nb	7.967337	2.655603	-2.655603
O	9.057158	3.745786	-1.565420
O	3.745600	6.876626	-3.745786
O	6.877515	3.745786	-3.745786
O	6.401379	6.401389	-1.090183
O	12.189073	6.876626	-1.565420
O	6.401379	9.532229	-4.221023
O	9.533294	9.532229	-1.090183
O	9.533294	6.401389	-4.221023
Rb	3.983668	3.983405	-3.983405
Rb	9.295226	6.639007	-1.327802
Rb	11.951005	3.983404	-1.327802
Rb	6.639447	6.639007	-3.983405
Nb	-5.311558	0.000000	-5.311206
Nb	-2.655779	-2.655603	-7.966809
O	-1.565958	-1.565420	-6.876626
O	-6.877515	1.565420	-9.056992
O	-3.745600	-1.565420	-9.056992
O	-4.221736	1.090183	-6.401389
O	1.565958	1.565420	-6.876626
O	-4.221736	4.221023	-9.532229
O	-1.089821	4.221023	-6.401389
O	-1.089821	1.090183	-9.532229
Rb	-6.639447	-1.327802	-9.294611
Rb	-1.327889	1.327802	-6.639007
Rb	1.327889	-1.327802	-6.639007
Rb	-3.983668	1.327802	-9.294611
Nb	0.000000	5.311206	-5.311206
Nb	2.655779	2.655603	-7.966809
O	3.745600	3.745786	-6.876626
O	-1.565958	6.876626	-9.056992
O	1.565958	3.745786	-9.056992
O	1.089821	6.401389	-6.401389
O	6.877515	6.876626	-6.876626
O	1.089821	9.532229	-9.532229
O	4.221736	9.532229	-6.401389
O	4.221736	6.401389	-9.532229
Rb	-1.327889	3.983405	-9.294611
Rb	3.983668	6.639007	-6.639007
Rb	6.639447	3.983404	-6.639007
Rb	1.327889	6.639007	-9.294611
Nb	5.311558	-5.311206	0.000000
Nb	7.967337	-7.966809	-2.655603
O	9.057158	-6.876626	-1.565420
O	3.745600	-3.745786	-3.745786
O	6.877515	-6.876626	-3.745786
O	6.401379	-4.221023	-1.090183
O	12.189073	-3.745786	-1.565420
O	6.401379	-1.090183	-4.221023
O	9.533294	-1.090183	-1.090183
O	9.533294	-4.221023	-4.221023
Rb	3.983668	-6.639007	-3.983405
Rb	9.295226	-3.983405	-1.327802
Rb	11.951005	-6.639008	-1.327802
Rb	6.639447	-3.983405	-3.983405
Nb	10.623116	0.000000	0.000000
Nb	13.278895	-2.655603	-2.655603
O	14.368716	-1.565420	-1.565420
O	9.057158	1.565420	-3.745786
O	12.189073	-1.565420	-3.745786
O	11.712937	1.090183	-1.090183
O	17.500631	1.565420	-1.565420
O	11.712937	4.221023	-4.221023
O	14.844852	4.221023	-1.090183
O	14.844852	1.090183	-4.221023
Rb	9.295226	-1.327801	-3.983405
Rb	14.606784	1.327802	-1.327802
Rb	17.262563	-1.327802	-1.327802
Rb	11.951005	1.327802	-3.983405
Nb	0.000000	-5.311206	-5.311206
Nb	2.655779	-7.966809	-7.966809
O	3.745600	-6.876626	-6.876626
O	-1.565958	-3.745786	-9.056992
O	1.565958	-6.876626	-9.056992
O	1.089821	-4.221023	-6.401389
O	6.877515	-3.745786	-6.876626
O	1.089821	-1.090183	-9.532229
O	4.221736	-1.090183	-6.401389
O	4.221736	-4.221023	-9.532229
Rb	-1.327889	-6.639007	-9.294611
Rb	3.983668	-3.983405	-6.639007
Rb	6.639447	-6.639008	-6.639007
Rb	1.327889	-3.983405	-9.294611
Nb	5.311558	0.000000	-5.311206
Nb	7.967337	-2.655603	-7.966809
O	9.057158	-1.565420	-6.876626
O	3.745600	1.565420	-9.056992
O	6.877515	-1.565420	-9.056992
O	6.401379	1.090183	-6.401389
O	12.189073	1.565420	-6.876626
O	6.401379	4.221023	-9.532229
O	9.533294	4.221023	-6.401389
O	9.533294	1.090183	-9.532229
Rb	3.983668	-1.327801	-9.294611
Rb	9.295226	1.327802	-6.639007
Rb	11.951005	-1.327802	-6.639007
Rb	6.639447	1.327802	-9.294611
