40

Ac	0.000000	0.000000	0.000000
Co	1.936540	1.936540	1.936540
O	1.936540	0.000000	1.936540
O	0.000000	1.936540	1.936540
O	1.936540	1.936540	0.000000
Ac	0.000000	0.000000	3.873090
Co	1.936540	1.936540	5.809630
O	1.936540	0.000000	5.809630
O	0.000000	1.936540	5.809630
O	1.936540	1.936540	3.873090
Ac	0.000000	3.873090	0.000000
Co	1.936540	5.809630	1.936540
O	1.936540	3.873090	1.936540
O	0.000000	5.809630	1.936540
O	1.936540	5.809630	0.000000
Ac	0.000000	3.873090	3.873090
Co	1.936540	5.809630	5.809630
O	1.936540	3.873090	5.809630
O	0.000000	5.809630	5.809630
O	1.936540	5.809630	3.873090
Ac	3.873090	0.000000	0.000000
Co	5.809630	1.936540	1.936540
O	5.809630	0.000000	1.936540
O	3.873090	1.936540	1.936540
O	5.809630	1.936540	0.000000
Ac	3.873090	0.000000	3.873090
Co	5.809630	1.936540	5.809630
O	5.809630	0.000000	5.809630
O	3.873090	1.936540	5.809630
O	5.809630	1.936540	3.873090
Ac	3.873090	3.873090	0.000000
Co	5.809630	5.809630	1.936540
O	5.809630	3.873090	1.936540
O	3.873090	5.809630	1.936540
O	5.809630	5.809630	0.000000
Ac	3.873090	3.873090	3.873090
Co	5.809630	5.809630	5.809630
O	5.809630	3.873090	5.809630
O	3.873090	5.809630	5.809630
O	5.809630	5.809630	3.873090
