112

Co	0.000000	0.000000	0.000000
Co	2.439720	-2.440289	-2.440289
La	-1.219860	-1.220145	-3.660434
La	3.659581	1.220145	-1.220145
La	6.099301	-1.220145	-1.220145
La	1.219860	1.220145	-3.660434
O	3.672910	-1.206402	-1.206402
O	-1.206531	1.206402	-3.674177
O	1.206531	-1.206402	-3.674177
O	1.233189	1.233887	-1.233887
O	6.085972	1.206402	-1.206402
O	1.233189	3.646691	-3.646691
O	3.646252	3.646691	-1.233887
O	3.646252	1.233887	-3.646691
Co	4.879441	4.880579	0.000000
Co	7.319161	2.440289	-2.440289
La	3.659581	3.660434	-3.660434
La	8.539022	6.100724	-1.220145
La	10.978742	3.660434	-1.220145
La	6.099301	6.100724	-3.660434
O	8.552351	3.674177	-1.206402
O	3.672910	6.086981	-3.674177
O	6.085972	3.674177	-3.674177
O	6.112630	6.114466	-1.233887
O	10.965413	6.086981	-1.206402
O	6.112630	8.527270	-3.646691
O	8.525693	8.527270	-1.233887
O	8.525693	6.114466	-3.646691
Co	-4.879441	0.000000	-4.880579
Co	-2.439720	-2.440289	-7.320868
La	-6.099301	-1.220145	-8.541013
La	-1.219860	1.220145	-6.100724
La	1.219860	-1.220145	-6.100724
La	-3.659581	1.220145	-8.541013
O	-1.206531	-1.206402	-6.086981
O	-6.085972	1.206402	-8.554756
O	-3.672910	-1.206402	-8.554756
O	-3.646252	1.233887	-6.114466
O	1.206531	1.206402	-6.086981
O	-3.646252	3.646691	-8.527270
O	-1.233189	3.646691	-6.114466
O	-1.233189	1.233887	-8.527270
Co	0.000000	4.880579	-4.880579
Co	2.439720	2.440289	-7.320868
La	-1.219860	3.660434	-8.541013
La	3.659581	6.100724	-6.100724
La	6.099301	3.660434	-6.100724
La	1.219860	6.100724	-8.541013
O	3.672910	3.674177	-6.086981
O	-1.206531	6.086981	-8.554756
O	1.206531	3.674177	-8.554756
O	1.233189	6.114466	-6.114466
O	6.085972	6.086981	-6.086981
O	1.233189	8.527270	-8.527270
O	3.646252	8.527270	-6.114466
O	3.646252	6.114466	-8.527270
Co	4.879441	-4.880579	0.000000
Co	7.319161	-7.320868	-2.440289
La	3.659581	-6.100724	-3.660434
La	8.539022	-3.660434	-1.220145
La	10.978742	-6.100724	-1.220145
La	6.099301	-3.660434	-3.660434
O	8.552351	-6.086981	-1.206402
O	3.672910	-3.674177	-3.674177
O	6.085972	-6.086981	-3.674177
O	6.112630	-3.646691	-1.233887
O	10.965413	-3.674177	-1.206402
O	6.112630	-1.233887	-3.646691
O	8.525693	-1.233887	-1.233887
O	8.525693	-3.646691	-3.646691
Co	9.758882	0.000000	0.000000
Co	12.198602	-2.440289	-2.440289
La	8.539022	-1.220145	-3.660434
La	13.418463	1.220145	-1.220145
La	15.858183	-1.220145	-1.220145
La	10.978742	1.220145	-3.660434
O	13.431792	-1.206402	-1.206402
O	8.552351	1.206402	-3.674177
O	10.965413	-1.206402	-3.674177
O	10.992071	1.233887	-1.233887
O	15.844854	1.206402	-1.206402
O	10.992071	3.646691	-3.646691
O	13.405134	3.646691	-1.233887
O	13.405134	1.233887	-3.646691
Co	0.000000	-4.880579	-4.880579
Co	2.439720	-7.320868	-7.320868
La	-1.219860	-6.100724	-8.541013
La	3.659581	-3.660434	-6.100724
La	6.099301	-6.100724	-6.100724
La	1.219860	-3.660434	-8.541013
O	3.672910	-6.086981	-6.086981
O	-1.206531	-3.674177	-8.554756
O	1.206531	-6.086981	-8.554756
O	1.233189	-3.646691	-6.114466
O	6.085972	-3.674177	-6.086981
O	1.233189	-1.233887	-8.527270
O	3.646252	-1.233887	-6.114466
O	3.646252	-3.646691	-8.527270
Co	4.879441	0.000000	-4.880579
Co	7.319161	-2.440289	-7.320868
La	3.659581	-1.220145	-8.541013
La	8.539022	1.220145	-6.100724
La	10.978742	-1.220145	-6.100724
La	6.099301	1.220145	-8.541013
O	8.552351	-1.206402	-6.086981
O	3.672910	1.206402	-8.554756
O	6.085972	-1.206402	-8.554756
O	6.112630	1.233887	-6.114466
O	10.965413	1.206402	-6.086981
O	6.112630	3.646691	-8.527270
O	8.525693	3.646691	-6.114466
O	8.525693	1.233887	-8.527270
