112

O	1.113991	1.114757	-1.114757
O	3.382969	-1.154647	-1.154647
O	-1.154987	1.154647	-3.384170
O	1.154987	-1.154647	-3.384170
O	1.113991	3.424060	-3.424060
O	3.423965	3.424060	-1.114757
O	3.423965	1.114757	-3.424060
O	5.692943	1.154647	-1.154647
Ru	0.000000	0.000000	0.000000
Ru	2.268978	-2.269413	-2.269413
Yb	-1.134494	-1.134702	-3.404115
Yb	3.403472	1.134702	-1.134702
Yb	5.672450	-1.134702	-1.134702
Yb	1.134494	1.134702	-3.404115
O	5.651950	5.653575	-1.114757
O	7.920928	3.384171	-1.154647
O	3.382972	5.693465	-3.384170
O	5.692945	3.384171	-3.384170
O	5.651950	7.962878	-3.424060
O	7.961923	7.962878	-1.114757
O	7.961923	5.653575	-3.424060
O	10.230901	5.693465	-1.154647
Ru	4.537959	4.538818	0.000000
Ru	6.806937	2.269405	-2.269413
Yb	3.403465	3.404116	-3.404115
Yb	7.941431	5.673520	-1.134702
Yb	10.210409	3.404116	-1.134702
Yb	5.672453	5.673520	-3.404115
O	-3.423967	1.114757	-5.653575
O	-1.154990	-1.154647	-5.693465
O	-5.692945	1.154647	-7.922988
O	-3.382972	-1.154647	-7.922988
O	-3.423967	3.424060	-7.962878
O	-1.113994	3.424060	-5.653575
O	-1.113994	1.114757	-7.962878
O	1.154984	1.154647	-5.693465
Ru	-4.537959	0.000000	-4.538818
Ru	-2.268981	-2.269413	-6.808231
Yb	-5.672453	-1.134702	-7.942933
Yb	-1.134487	1.134702	-5.673520
Yb	1.134491	-1.134702	-5.673520
Yb	-3.403465	1.134702	-7.942933
O	1.113991	5.653575	-5.653575
O	3.382969	3.384171	-5.693465
O	-1.154987	5.693465	-7.922988
O	1.154987	3.384171	-7.922988
O	1.113991	7.962878	-7.962878
O	3.423965	7.962878	-5.653575
O	3.423965	5.653575	-7.962878
O	5.692943	5.693465	-5.693465
Ru	0.000000	4.538818	-4.538818
Ru	2.268978	2.269405	-6.808231
Yb	-1.134494	3.404116	-7.942933
Yb	3.403472	5.673520	-5.673520
Yb	5.672450	3.404116	-5.673520
Yb	1.134494	5.673520	-7.942933
O	5.651950	-3.424061	-1.114757
O	7.920928	-5.693465	-1.154647
O	3.382972	-3.384171	-3.384170
O	5.692945	-5.693465	-3.384170
O	5.651950	-1.114758	-3.424060
O	7.961923	-1.114758	-1.114757
O	7.961923	-3.424061	-3.424060
O	10.230901	-3.384171	-1.154647
Ru	4.537959	-4.538818	0.000000
Ru	6.806937	-6.808231	-2.269413
Yb	3.403465	-5.673520	-3.404115
Yb	7.941431	-3.404116	-1.134702
Yb	10.210409	-5.673520	-1.134702
Yb	5.672453	-3.404116	-3.404115
O	10.189908	1.114757	-1.114757
O	12.458886	-1.154647	-1.154647
O	7.920930	1.154647	-3.384170
O	10.230904	-1.154647	-3.384170
O	10.189908	3.424060	-3.424060
O	12.499882	3.424060	-1.114757
O	12.499882	1.114757	-3.424060
O	14.768860	1.154647	-1.154647
Ru	9.075917	0.000000	0.000000
Ru	11.344895	-2.269413	-2.269413
Yb	7.941423	-1.134702	-3.404115
Yb	12.479389	1.134702	-1.134702
Yb	14.748367	-1.134702	-1.134702
Yb	10.210411	1.134702	-3.404115
O	1.113991	-3.424061	-5.653575
O	3.382969	-5.693465	-5.693465
O	-1.154987	-3.384171	-7.922988
O	1.154987	-5.693465	-7.922988
O	1.113991	-1.114758	-7.962878
O	3.423965	-1.114758	-5.653575
O	3.423965	-3.424061	-7.962878
O	5.692943	-3.384171	-5.693465
Ru	0.000000	-4.538818	-4.538818
Ru	2.268978	-6.808231	-6.808231
Yb	-1.134494	-5.673520	-7.942933
Yb	3.403472	-3.404116	-5.673520
Yb	5.672450	-5.673520	-5.673520
Yb	1.134494	-3.404116	-7.942933
O	5.651950	1.114757	-5.653575
O	7.920928	-1.154647	-5.693465
O	3.382972	1.154647	-7.922988
O	5.692945	-1.154647	-7.922988
O	5.651950	3.424060	-7.962878
O	7.961923	3.424060	-5.653575
O	7.961923	1.114757	-7.962878
O	10.230901	1.154647	-5.693465
Ru	4.537959	0.000000	-4.538818
Ru	6.806937	-2.269413	-6.808231
Yb	3.403465	-1.134702	-7.942933
Yb	7.941431	1.134702	-5.673520
Yb	10.210409	-1.134702	-5.673520
Yb	5.672453	1.134702	-7.942933
