40

Cd	2.030040	2.030040	2.030040
O	2.030040	2.030040	0.000000
O	0.000000	2.030040	2.030040
O	2.030040	0.000000	2.030040
Sc_sv	0.000000	0.000000	0.000000
Cd	2.030040	2.030040	6.090127
O	2.030040	2.030040	4.060087
O	0.000000	2.030040	6.090127
O	2.030040	0.000000	6.090127
Sc_sv	0.000000	0.000000	4.060087
Cd	2.030040	6.090127	2.030040
O	2.030040	6.090127	0.000000
O	0.000000	6.090127	2.030040
O	2.030040	4.060087	2.030040
Sc_sv	0.000000	4.060087	0.000000
Cd	2.030040	6.090127	6.090127
O	2.030040	6.090127	4.060087
O	0.000000	6.090127	6.090127
O	2.030040	4.060087	6.090127
Sc_sv	0.000000	4.060087	4.060087
Cd	6.090127	2.030040	2.030040
O	6.090127	2.030040	0.000000
O	4.060087	2.030040	2.030040
O	6.090127	0.000000	2.030040
Sc_sv	4.060087	0.000000	0.000000
Cd	6.090127	2.030040	6.090127
O	6.090127	2.030040	4.060087
O	4.060087	2.030040	6.090127
O	6.090127	0.000000	6.090127
Sc_sv	4.060087	0.000000	4.060087
Cd	6.090127	6.090127	2.030040
O	6.090127	6.090127	0.000000
O	4.060087	6.090127	2.030040
O	6.090127	4.060087	2.030040
Sc_sv	4.060087	4.060087	0.000000
Cd	6.090127	6.090127	6.090127
O	6.090127	6.090127	4.060087
O	4.060087	6.090127	6.090127
O	6.090127	4.060087	6.090127
Sc_sv	4.060087	4.060087	4.060087
