40

Cd	0.000000	0.000000	0.000000
O	2.019460	0.000000	2.019460
O	0.000000	2.019460	2.019460
O	2.019460	2.019460	0.000000
Sc_sv	2.019460	2.019460	2.019460
Cd	0.000000	0.000000	4.038921
O	2.019460	0.000000	6.058381
O	0.000000	2.019460	6.058381
O	2.019460	2.019460	4.038921
Sc_sv	2.019460	2.019460	6.058381
Cd	0.000000	4.038921	0.000000
O	2.019460	4.038921	2.019460
O	0.000000	6.058381	2.019460
O	2.019460	6.058381	0.000000
Sc_sv	2.019460	6.058381	2.019460
Cd	0.000000	4.038921	4.038921
O	2.019460	4.038921	6.058381
O	0.000000	6.058381	6.058381
O	2.019460	6.058381	4.038921
Sc_sv	2.019460	6.058381	6.058381
Cd	4.038921	0.000000	0.000000
O	6.058381	0.000000	2.019460
O	4.038921	2.019460	2.019460
O	6.058381	2.019460	0.000000
Sc_sv	6.058381	2.019460	2.019460
Cd	4.038921	0.000000	4.038921
O	6.058381	0.000000	6.058381
O	4.038921	2.019460	6.058381
O	6.058381	2.019460	4.038921
Sc_sv	6.058381	2.019460	6.058381
Cd	4.038921	4.038921	0.000000
O	6.058381	4.038921	2.019460
O	4.038921	6.058381	2.019460
O	6.058381	6.058381	0.000000
Sc_sv	6.058381	6.058381	2.019460
Cd	4.038921	4.038921	4.038921
O	6.058381	4.038921	6.058381
O	4.038921	6.058381	6.058381
O	6.058381	6.058381	4.038921
Sc_sv	6.058381	6.058381	6.058381
