40

Mn	1.943554	1.943554	1.943554
O	0.000000	1.943554	1.943554
O	1.943554	0.000000	1.943554
O	1.943554	1.943554	0.000000
Tl	0.000000	0.000000	0.000000
Mn	1.943554	1.943554	5.830662
O	0.000000	1.943554	5.830662
O	1.943554	0.000000	5.830662
O	1.943554	1.943554	3.887108
Tl	0.000000	0.000000	3.887108
Mn	1.943554	5.830662	1.943554
O	0.000000	5.830662	1.943554
O	1.943554	3.887108	1.943554
O	1.943554	5.830662	0.000000
Tl	0.000000	3.887108	0.000000
Mn	1.943554	5.830662	5.830662
O	0.000000	5.830662	5.830662
O	1.943554	3.887108	5.830662
O	1.943554	5.830662	3.887108
Tl	0.000000	3.887108	3.887108
Mn	5.830662	1.943554	1.943554
O	3.887108	1.943554	1.943554
O	5.830662	0.000000	1.943554
O	5.830662	1.943554	0.000000
Tl	3.887108	0.000000	0.000000
Mn	5.830662	1.943554	5.830662
O	3.887108	1.943554	5.830662
O	5.830662	0.000000	5.830662
O	5.830662	1.943554	3.887108
Tl	3.887108	0.000000	3.887108
Mn	5.830662	5.830662	1.943554
O	3.887108	5.830662	1.943554
O	5.830662	3.887108	1.943554
O	5.830662	5.830662	0.000000
Tl	3.887108	3.887108	0.000000
Mn	5.830662	5.830662	5.830662
O	3.887108	5.830662	5.830662
O	5.830662	3.887108	5.830662
O	5.830662	5.830662	3.887108
Tl	3.887108	3.887108	3.887108
