112

Hg	0.000000	0.000000	0.000000
Hg	2.562351	-2.572866	-2.572866
Np	-1.281176	-1.286438	-3.859304
Np	6.405888	-1.286438	-1.286438
Np	1.281176	1.286438	-3.859304
Np	3.843537	1.286438	-1.286438
O	4.151029	-0.962978	-0.962978
O	-0.973684	0.962978	-4.182764
O	0.973684	-0.962978	-4.182764
O	1.588668	1.609898	-1.609898
O	6.098396	0.962978	-0.962978
O	1.588668	3.535844	-3.535844
O	3.536035	3.535844	-1.609898
O	3.536035	1.609898	-3.535844
Hg	5.124714	5.145738	0.000000
Hg	7.687065	2.572872	-2.572866
Np	3.843538	3.859300	-3.859304
Np	11.530603	3.859300	-1.286438
Np	6.405890	6.432176	-3.859304
Np	8.968251	6.432176	-1.286438
O	9.275743	4.182760	-0.962978
O	4.151030	6.108717	-4.182764
O	6.098398	4.182760	-4.182764
O	6.713382	6.755636	-1.609898
O	11.223110	6.108717	-0.962978
O	6.713382	8.681583	-3.535844
O	8.660749	8.681583	-1.609898
O	8.660749	6.755636	-3.535844
Hg	-5.124714	0.000000	-5.145738
Hg	-2.562363	-2.572866	-7.718604
Np	-6.405890	-1.286438	-9.005042
Np	1.281174	-1.286438	-6.432176
Np	-3.843538	1.286438	-9.005042
Np	-1.281177	1.286438	-6.432176
O	-0.973685	-0.962978	-6.108717
O	-6.098398	0.962978	-9.328502
O	-4.151030	-0.962978	-9.328502
O	-3.536046	1.609898	-6.755636
O	0.973682	0.962978	-6.108717
O	-3.536046	3.535844	-8.681583
O	-1.588679	3.535844	-6.755636
O	-1.588679	1.609898	-8.681583
Hg	0.000000	5.145738	-5.145738
Hg	2.562351	2.572872	-7.718604
Np	-1.281176	3.859300	-9.005042
Np	6.405888	3.859300	-6.432176
Np	1.281176	6.432176	-9.005042
Np	3.843537	6.432176	-6.432176
O	4.151029	4.182760	-6.108717
O	-0.973684	6.108717	-9.328502
O	0.973684	4.182760	-9.328502
O	1.588668	6.755636	-6.755636
O	6.098396	6.108717	-6.108717
O	1.588668	8.681583	-8.681583
O	3.536035	8.681583	-6.755636
O	3.536035	6.755636	-8.681583
Hg	5.124714	-5.145738	0.000000
Hg	7.687065	-7.718604	-2.572866
Np	3.843538	-6.432176	-3.859304
Np	11.530603	-6.432176	-1.286438
Np	6.405890	-3.859300	-3.859304
Np	8.968251	-3.859300	-1.286438
O	9.275743	-6.108717	-0.962978
O	4.151030	-4.182760	-4.182764
O	6.098398	-6.108717	-4.182764
O	6.713382	-3.535841	-1.609898
O	11.223110	-4.182760	-0.962978
O	6.713382	-1.609894	-3.535844
O	8.660749	-1.609894	-1.609898
O	8.660749	-3.535841	-3.535844
Hg	10.249428	0.000000	0.000000
Hg	12.811780	-2.572866	-2.572866
Np	8.968253	-1.286438	-3.859304
Np	16.655317	-1.286438	-1.286438
Np	11.530604	1.286438	-3.859304
Np	14.092965	1.286438	-1.286438
O	14.400457	-0.962978	-0.962978
O	9.275745	0.962978	-4.182764
O	11.223112	-0.962978	-4.182764
O	11.838096	1.609898	-1.609898
O	16.347825	0.962978	-0.962978
O	11.838096	3.535844	-3.535844
O	13.785463	3.535844	-1.609898
O	13.785463	1.609898	-3.535844
Hg	0.000000	-5.145738	-5.145738
Hg	2.562351	-7.718604	-7.718604
Np	-1.281176	-6.432176	-9.005042
Np	6.405888	-6.432176	-6.432176
Np	1.281176	-3.859300	-9.005042
Np	3.843537	-3.859300	-6.432176
O	4.151029	-6.108717	-6.108717
O	-0.973684	-4.182760	-9.328502
O	0.973684	-6.108717	-9.328502
O	1.588668	-3.535841	-6.755636
O	6.098396	-4.182760	-6.108717
O	1.588668	-1.609894	-8.681583
O	3.536035	-1.609894	-6.755636
O	3.536035	-3.535841	-8.681583
Hg	5.124714	0.000000	-5.145738
Hg	7.687065	-2.572866	-7.718604
Np	3.843538	-1.286438	-9.005042
Np	11.530603	-1.286438	-6.432176
Np	6.405890	1.286438	-9.005042
Np	8.968251	1.286438	-6.432176
O	9.275743	-0.962978	-6.108717
O	4.151030	0.962978	-9.328502
O	6.098398	-0.962978	-9.328502
O	6.713382	1.609898	-6.755636
O	11.223110	0.962978	-6.108717
O	6.713382	3.535844	-8.681583
O	8.660749	3.535844	-6.755636
O	8.660749	1.609898	-8.681583
