40

B	1.660960	1.660960	1.660960
Mg	0.000000	0.000000	0.000000
O	1.660960	1.660960	0.000000
O	0.000000	1.660960	1.660960
O	1.660960	0.000000	1.660960
B	1.660960	1.660960	4.982877
Mg	0.000000	0.000000	3.321917
O	1.660960	1.660960	3.321917
O	0.000000	1.660960	4.982877
O	1.660960	0.000000	4.982877
B	1.660960	4.982877	1.660960
Mg	0.000000	3.321917	0.000000
O	1.660960	4.982877	0.000000
O	0.000000	4.982877	1.660960
O	1.660960	3.321917	1.660960
B	1.660960	4.982877	4.982877
Mg	0.000000	3.321917	3.321917
O	1.660960	4.982877	3.321917
O	0.000000	4.982877	4.982877
O	1.660960	3.321917	4.982877
B	4.982877	1.660960	1.660960
Mg	3.321917	0.000000	0.000000
O	4.982877	1.660960	0.000000
O	3.321917	1.660960	1.660960
O	4.982877	0.000000	1.660960
B	4.982877	1.660960	4.982877
Mg	3.321917	0.000000	3.321917
O	4.982877	1.660960	3.321917
O	3.321917	1.660960	4.982877
O	4.982877	0.000000	4.982877
B	4.982877	4.982877	1.660960
Mg	3.321917	3.321917	0.000000
O	4.982877	4.982877	0.000000
O	3.321917	4.982877	1.660960
O	4.982877	3.321917	1.660960
B	4.982877	4.982877	4.982877
Mg	3.321917	3.321917	3.321917
O	4.982877	4.982877	3.321917
O	3.321917	4.982877	4.982877
O	4.982877	3.321917	4.982877
