40

Hg	2.189430	2.189430	2.189430
O	0.000000	2.189430	2.189430
O	2.189430	0.000000	2.189430
O	2.189430	2.189430	0.000000
Rb	0.000000	0.000000	0.000000
Hg	2.189430	2.189430	6.568289
O	0.000000	2.189430	6.568289
O	2.189430	0.000000	6.568289
O	2.189430	2.189430	4.378859
Rb	0.000000	0.000000	4.378859
Hg	2.189430	6.568289	2.189430
O	0.000000	6.568289	2.189430
O	2.189430	4.378859	2.189430
O	2.189430	6.568289	0.000000
Rb	0.000000	4.378859	0.000000
Hg	2.189430	6.568289	6.568289
O	0.000000	6.568289	6.568289
O	2.189430	4.378859	6.568289
O	2.189430	6.568289	4.378859
Rb	0.000000	4.378859	4.378859
Hg	6.568289	2.189430	2.189430
O	4.378859	2.189430	2.189430
O	6.568289	0.000000	2.189430
O	6.568289	2.189430	0.000000
Rb	4.378859	0.000000	0.000000
Hg	6.568289	2.189430	6.568289
O	4.378859	2.189430	6.568289
O	6.568289	0.000000	6.568289
O	6.568289	2.189430	4.378859
Rb	4.378859	0.000000	4.378859
Hg	6.568289	6.568289	2.189430
O	4.378859	6.568289	2.189430
O	6.568289	4.378859	2.189430
O	6.568289	6.568289	0.000000
Rb	4.378859	4.378859	0.000000
Hg	6.568289	6.568289	6.568289
O	4.378859	6.568289	6.568289
O	6.568289	4.378859	6.568289
O	6.568289	6.568289	4.378859
Rb	4.378859	4.378859	4.378859
