112

O	3.617286	-0.927152	-0.927152
O	-0.927578	0.927152	-3.619438
O	0.927578	-0.927152	-3.619438
O	1.344854	1.346143	-1.346143
O	5.472441	0.927152	-0.927152
O	1.344854	3.200447	-3.200447
O	3.200010	3.200447	-1.346143
O	3.200010	1.346143	-3.200447
Pb	0.000000	0.000000	0.000000
Pb	2.272432	-2.273295	-2.273295
Rh	-1.136216	-1.136647	-3.409942
Rh	3.408648	1.136647	-1.136647
Rh	5.681080	-1.136647	-1.136647
Rh	1.136216	1.136647	-3.409942
O	8.162150	3.619438	-0.927152
O	3.617286	5.473741	-3.619438
O	5.472441	3.619438	-3.619438
O	5.889718	5.892733	-1.346143
O	10.017305	5.473741	-0.927152
O	5.889718	7.747036	-3.200447
O	7.744873	7.747036	-1.346143
O	7.744873	5.892733	-3.200447
Pb	4.544864	4.546590	0.000000
Pb	6.817296	2.273295	-2.273295
Rh	3.408648	3.409942	-3.409942
Rh	7.953512	5.683237	-1.136647
Rh	10.225944	3.409942	-1.136647
Rh	5.681080	5.683237	-3.409942
O	-0.927578	-0.927152	-5.473741
O	-5.472441	0.927152	-8.166027
O	-3.617286	-0.927152	-8.166027
O	-3.200010	1.346143	-5.892733
O	0.927578	0.927152	-5.473741
O	-3.200010	3.200447	-7.747036
O	-1.344854	3.200447	-5.892733
O	-1.344854	1.346143	-7.747036
Pb	-4.544864	0.000000	-4.546590
Pb	-2.272432	-2.273295	-6.819884
Rh	-5.681080	-1.136647	-7.956532
Rh	-1.136216	1.136647	-5.683237
Rh	1.136216	-1.136647	-5.683237
Rh	-3.408648	1.136647	-7.956532
O	3.617286	3.619438	-5.473741
O	-0.927578	5.473741	-8.166027
O	0.927578	3.619438	-8.166027
O	1.344854	5.892733	-5.892733
O	5.472441	5.473741	-5.473741
O	1.344854	7.747036	-7.747036
O	3.200010	7.747036	-5.892733
O	3.200010	5.892733	-7.747036
Pb	0.000000	4.546590	-4.546590
Pb	2.272432	2.273295	-6.819884
Rh	-1.136216	3.409942	-7.956532
Rh	3.408648	5.683237	-5.683237
Rh	5.681080	3.409942	-5.683237
Rh	1.136216	5.683237	-7.956532
O	8.162150	-5.473741	-0.927152
O	3.617286	-3.619438	-3.619438
O	5.472441	-5.473741	-3.619438
O	5.889718	-3.200447	-1.346143
O	10.017305	-3.619438	-0.927152
O	5.889718	-1.346143	-3.200447
O	7.744873	-1.346143	-1.346143
O	7.744873	-3.200447	-3.200447
Pb	4.544864	-4.546590	0.000000
Pb	6.817296	-6.819884	-2.273295
Rh	3.408648	-5.683237	-3.409942
Rh	7.953512	-3.409942	-1.136647
Rh	10.225944	-5.683237	-1.136647
Rh	5.681080	-3.409942	-3.409942
O	12.707014	-0.927152	-0.927152
O	8.162150	0.927152	-3.619438
O	10.017305	-0.927152	-3.619438
O	10.434582	1.346143	-1.346143
O	14.562169	0.927152	-0.927152
O	10.434582	3.200447	-3.200447
O	12.289737	3.200447	-1.346143
O	12.289737	1.346143	-3.200447
Pb	9.089728	0.000000	0.000000
Pb	11.362160	-2.273295	-2.273295
Rh	7.953512	-1.136647	-3.409942
Rh	12.498376	1.136647	-1.136647
Rh	14.770808	-1.136647	-1.136647
Rh	10.225944	1.136647	-3.409942
O	3.617286	-5.473741	-5.473741
O	-0.927578	-3.619438	-8.166027
O	0.927578	-5.473741	-8.166027
O	1.344854	-3.200447	-5.892733
O	5.472441	-3.619438	-5.473741
O	1.344854	-1.346143	-7.747036
O	3.200010	-1.346143	-5.892733
O	3.200010	-3.200447	-7.747036
Pb	0.000000	-4.546590	-4.546590
Pb	2.272432	-6.819884	-6.819884
Rh	-1.136216	-5.683237	-7.956532
Rh	3.408648	-3.409942	-5.683237
Rh	5.681080	-5.683237	-5.683237
Rh	1.136216	-3.409942	-7.956532
O	8.162150	-0.927152	-5.473741
O	3.617286	0.927152	-8.166027
O	5.472441	-0.927152	-8.166027
O	5.889718	1.346143	-5.892733
O	10.017305	0.927152	-5.473741
O	5.889718	3.200447	-7.747036
O	7.744873	3.200447	-5.892733
O	7.744873	1.346143	-7.747036
Pb	4.544864	0.000000	-4.546590
Pb	6.817296	-2.273295	-6.819884
Rh	3.408648	-1.136647	-7.956532
Rh	7.953512	1.136647	-5.683237
Rh	10.225944	-1.136647	-5.683237
Rh	5.681080	1.136647	-7.956532
