112

Ba	0.000000	0.000000	0.000000
Ba	2.341846	-2.342613	-2.342613
Ir	-1.170923	-1.171307	-3.513920
Ir	3.512768	1.171307	-1.171307
Ir	5.854614	-1.171307	-1.171307
Ir	1.170923	1.171307	-3.513920
O	3.783957	-0.899429	-0.899429
O	-0.899734	0.899429	-3.785797
O	0.899734	-0.899429	-3.785797
O	1.442112	1.443184	-1.443184
O	5.583425	0.899429	-0.899429
O	1.442112	3.242042	-3.242042
O	3.241580	3.242042	-1.443184
O	3.241580	1.443184	-3.242042
Ba	4.683691	4.685226	0.000000
Ba	7.025537	2.342613	-2.342613
Ir	3.512768	3.513920	-3.513920
Ir	8.196460	5.856533	-1.171307
Ir	10.538305	3.513920	-1.171307
Ir	5.854614	5.856533	-3.513920
O	8.467648	3.785797	-0.899429
O	3.783957	5.584655	-3.785797
O	5.583425	3.785797	-3.785797
O	6.125803	6.128410	-1.443184
O	10.267116	5.584655	-0.899429
O	6.125803	7.927268	-3.242042
O	7.925271	7.927268	-1.443184
O	7.925271	6.128410	-3.242042
Ba	-4.683691	0.000000	-4.685226
Ba	-2.341846	-2.342613	-7.027839
Ir	-5.854614	-1.171307	-8.199146
Ir	-1.170923	1.171307	-5.856533
Ir	1.170923	-1.171307	-5.856533
Ir	-3.512768	1.171307	-8.199146
O	-0.899734	-0.899429	-5.584655
O	-5.583425	0.899429	-8.471023
O	-3.783957	-0.899429	-8.471023
O	-3.241580	1.443184	-6.128410
O	0.899734	0.899429	-5.584655
O	-3.241580	3.242042	-7.927268
O	-1.442112	3.242042	-6.128410
O	-1.442112	1.443184	-7.927268
Ba	0.000000	4.685226	-4.685226
Ba	2.341846	2.342613	-7.027839
Ir	-1.170923	3.513920	-8.199146
Ir	3.512768	5.856533	-5.856533
Ir	5.854614	3.513920	-5.856533
Ir	1.170923	5.856533	-8.199146
O	3.783957	3.785797	-5.584655
O	-0.899734	5.584655	-8.471023
O	0.899734	3.785797	-8.471023
O	1.442112	6.128410	-6.128410
O	5.583425	5.584655	-5.584655
O	1.442112	7.927268	-7.927268
O	3.241580	7.927268	-6.128410
O	3.241580	6.128410	-7.927268
Ba	4.683691	-4.685226	0.000000
Ba	7.025537	-7.027839	-2.342613
Ir	3.512768	-5.856533	-3.513920
Ir	8.196460	-3.513920	-1.171307
Ir	10.538305	-5.856533	-1.171307
Ir	5.854614	-3.513920	-3.513920
O	8.467648	-5.584655	-0.899429
O	3.783957	-3.785797	-3.785797
O	5.583425	-5.584655	-3.785797
O	6.125803	-3.242042	-1.443184
O	10.267116	-3.785797	-0.899429
O	6.125803	-1.443184	-3.242042
O	7.925271	-1.443184	-1.443184
O	7.925271	-3.242042	-3.242042
Ba	9.367382	0.000000	0.000000
Ba	11.709228	-2.342613	-2.342613
Ir	8.196460	-1.171307	-3.513920
Ir	12.880151	1.171307	-1.171307
Ir	15.221997	-1.171307	-1.171307
Ir	10.538305	1.171307	-3.513920
O	13.151340	-0.899429	-0.899429
O	8.467648	0.899429	-3.785797
O	10.267116	-0.899429	-3.785797
O	10.809494	1.443184	-1.443184
O	14.950808	0.899429	-0.899429
O	10.809494	3.242042	-3.242042
O	12.608962	3.242042	-1.443184
O	12.608962	1.443184	-3.242042
Ba	0.000000	-4.685226	-4.685226
Ba	2.341846	-7.027839	-7.027839
Ir	-1.170923	-5.856533	-8.199146
Ir	3.512768	-3.513920	-5.856533
Ir	5.854614	-5.856533	-5.856533
Ir	1.170923	-3.513920	-8.199146
O	3.783957	-5.584655	-5.584655
O	-0.899734	-3.785797	-8.471023
O	0.899734	-5.584655	-8.471023
O	1.442112	-3.242042	-6.128410
O	5.583425	-3.785797	-5.584655
O	1.442112	-1.443184	-7.927268
O	3.241580	-1.443184	-6.128410
O	3.241580	-3.242042	-7.927268
Ba	4.683691	0.000000	-4.685226
Ba	7.025537	-2.342613	-7.027839
Ir	3.512768	-1.171307	-8.199146
Ir	8.196460	1.171307	-5.856533
Ir	10.538305	-1.171307	-5.856533
Ir	5.854614	1.171307	-8.199146
O	8.467648	-0.899429	-5.584655
O	3.783957	0.899429	-8.471023
O	5.583425	-0.899429	-8.471023
O	6.125803	1.443184	-6.128410
O	10.267116	0.899429	-5.584655
O	6.125803	3.242042	-7.927268
O	7.925271	3.242042	-6.128410
O	7.925271	1.443184	-7.927268
