40

O	2.112390	2.112390	0.000000
O	0.000000	2.112390	2.112390
O	2.112390	0.000000	2.112390
Pd	0.000000	0.000000	0.000000
Tm_3	2.112390	2.112390	2.112390
O	2.112390	2.112390	4.224775
O	0.000000	2.112390	6.337165
O	2.112390	0.000000	6.337165
Pd	0.000000	0.000000	4.224775
Tm_3	2.112390	2.112390	6.337165
O	2.112390	6.337165	0.000000
O	0.000000	6.337165	2.112390
O	2.112390	4.224775	2.112390
Pd	0.000000	4.224775	0.000000
Tm_3	2.112390	6.337165	2.112390
O	2.112390	6.337165	4.224775
O	0.000000	6.337165	6.337165
O	2.112390	4.224775	6.337165
Pd	0.000000	4.224775	4.224775
Tm_3	2.112390	6.337165	6.337165
O	6.337165	2.112390	0.000000
O	4.224775	2.112390	2.112390
O	6.337165	0.000000	2.112390
Pd	4.224775	0.000000	0.000000
Tm_3	6.337165	2.112390	2.112390
O	6.337165	2.112390	4.224775
O	4.224775	2.112390	6.337165
O	6.337165	0.000000	6.337165
Pd	4.224775	0.000000	4.224775
Tm_3	6.337165	2.112390	6.337165
O	6.337165	6.337165	0.000000
O	4.224775	6.337165	2.112390
O	6.337165	4.224775	2.112390
Pd	4.224775	4.224775	0.000000
Tm_3	6.337165	6.337165	2.112390
O	6.337165	6.337165	4.224775
O	4.224775	6.337165	6.337165
O	6.337165	4.224775	6.337165
Pd	4.224775	4.224775	4.224775
Tm_3	6.337165	6.337165	6.337165
