40

La	0.000000	0.000000	0.000000
O	1.981180	1.981180	0.000000
O	0.000000	1.981180	1.981180
O	1.981180	0.000000	1.981180
Ru	1.981180	1.981180	1.981180
La	0.000000	0.000000	3.962355
O	1.981180	1.981180	3.962355
O	0.000000	1.981180	5.943535
O	1.981180	0.000000	5.943535
Ru	1.981180	1.981180	5.943535
La	0.000000	3.962355	0.000000
O	1.981180	5.943535	0.000000
O	0.000000	5.943535	1.981180
O	1.981180	3.962355	1.981180
Ru	1.981180	5.943535	1.981180
La	0.000000	3.962355	3.962355
O	1.981180	5.943535	3.962355
O	0.000000	5.943535	5.943535
O	1.981180	3.962355	5.943535
Ru	1.981180	5.943535	5.943535
La	3.962355	0.000000	0.000000
O	5.943535	1.981180	0.000000
O	3.962355	1.981180	1.981180
O	5.943535	0.000000	1.981180
Ru	5.943535	1.981180	1.981180
La	3.962355	0.000000	3.962355
O	5.943535	1.981180	3.962355
O	3.962355	1.981180	5.943535
O	5.943535	0.000000	5.943535
Ru	5.943535	1.981180	5.943535
La	3.962355	3.962355	0.000000
O	5.943535	5.943535	0.000000
O	3.962355	5.943535	1.981180
O	5.943535	3.962355	1.981180
Ru	5.943535	5.943535	1.981180
La	3.962355	3.962355	3.962355
O	5.943535	5.943535	3.962355
O	3.962355	5.943535	5.943535
O	5.943535	3.962355	5.943535
Ru	5.943535	5.943535	5.943535
