40

Ac	2.302600	2.302600	2.302600
Mn	0.000000	0.000000	0.000000
O	2.302600	2.302600	0.000000
O	2.302600	0.000000	2.302600
O	0.000000	2.302600	2.302600
Ac	2.302600	2.302600	6.907799
Mn	0.000000	0.000000	4.605199
O	2.302600	2.302600	4.605199
O	2.302600	0.000000	6.907799
O	0.000000	2.302600	6.907799
Ac	2.302600	6.907799	2.302600
Mn	0.000000	4.605199	0.000000
O	2.302600	6.907799	0.000000
O	2.302600	4.605199	2.302600
O	0.000000	6.907799	2.302600
Ac	2.302600	6.907799	6.907799
Mn	0.000000	4.605199	4.605199
O	2.302600	6.907799	4.605199
O	2.302600	4.605199	6.907799
O	0.000000	6.907799	6.907799
Ac	6.907799	2.302600	2.302600
Mn	4.605199	0.000000	0.000000
O	6.907799	2.302600	0.000000
O	6.907799	0.000000	2.302600
O	4.605199	2.302600	2.302600
Ac	6.907799	2.302600	6.907799
Mn	4.605199	0.000000	4.605199
O	6.907799	2.302600	4.605199
O	6.907799	0.000000	6.907799
O	4.605199	2.302600	6.907799
Ac	6.907799	6.907799	2.302600
Mn	4.605199	4.605199	0.000000
O	6.907799	6.907799	0.000000
O	6.907799	4.605199	2.302600
O	4.605199	6.907799	2.302600
Ac	6.907799	6.907799	6.907799
Mn	4.605199	4.605199	4.605199
O	6.907799	6.907799	4.605199
O	6.907799	4.605199	6.907799
O	4.605199	6.907799	6.907799
