112

Be	0.000000	0.000000	0.000000
Be	2.144816	-2.145229	-2.145229
Na	-1.072413	-1.072619	-3.217848
Na	5.362054	-1.072619	-1.072619
Na	3.217229	1.072619	-1.072619
Na	1.072413	1.072619	-3.217848
O	0.915391	0.916029	-0.916029
O	3.060207	-1.229200	-1.229200
O	-1.229435	1.229200	-3.061268
O	1.229435	-1.229200	-3.061268
O	0.915391	3.374429	-3.374429
O	3.374250	3.374429	-0.916029
O	3.374250	0.916029	-3.374429
O	5.519076	1.229200	-1.229200
Be	4.289640	4.290465	0.000000
Be	6.434456	2.145236	-2.145229
Na	3.217227	3.217846	-3.217848
Na	9.651694	3.217846	-1.072619
Na	7.506868	5.363085	-1.072619
Na	5.362053	5.363085	-3.217848
O	5.205031	5.206494	-0.916029
O	7.349847	3.061265	-1.229200
O	3.060205	5.519665	-3.061268
O	5.519074	3.061265	-3.061268
O	5.205031	7.664894	-3.374429
O	7.663890	7.664894	-0.916029
O	7.663890	5.206494	-3.374429
O	9.808716	5.519665	-1.229200
Be	-4.289640	0.000000	-4.290465
Be	-2.144824	-2.145229	-6.435694
Na	-5.362053	-1.072619	-7.508313
Na	1.072414	-1.072619	-5.363085
Na	-1.072411	1.072619	-5.363085
Na	-3.217227	1.072619	-7.508313
O	-3.374249	0.916029	-5.206494
O	-1.229433	-1.229200	-5.519665
O	-5.519074	1.229200	-7.351733
O	-3.060205	-1.229200	-7.351733
O	-3.374249	3.374429	-7.664894
O	-0.915389	3.374429	-5.206494
O	-0.915389	0.916029	-7.664894
O	1.229436	1.229200	-5.519665
Be	0.000000	4.290465	-4.290465
Be	2.144816	2.145236	-6.435694
Na	-1.072413	3.217846	-7.508313
Na	5.362054	3.217846	-5.363085
Na	3.217229	5.363085	-5.363085
Na	1.072413	5.363085	-7.508313
O	0.915391	5.206494	-5.206494
O	3.060207	3.061265	-5.519665
O	-1.229435	5.519665	-7.351733
O	1.229435	3.061265	-7.351733
O	0.915391	7.664894	-7.664894
O	3.374250	7.664894	-5.206494
O	3.374250	5.206494	-7.664894
O	5.519076	5.519665	-5.519665
Be	4.289640	-4.290465	0.000000
Be	6.434456	-6.435694	-2.145229
Na	3.217227	-5.363085	-3.217848
Na	9.651694	-5.363085	-1.072619
Na	7.506868	-3.217846	-1.072619
Na	5.362053	-3.217846	-3.217848
O	5.205031	-3.374436	-0.916029
O	7.349847	-5.519665	-1.229200
O	3.060205	-3.061265	-3.061268
O	5.519074	-5.519665	-3.061268
O	5.205031	-0.916036	-3.374429
O	7.663890	-0.916037	-0.916029
O	7.663890	-3.374436	-3.374429
O	9.808716	-3.061265	-1.229200
Be	8.579280	0.000000	0.000000
Be	10.724095	-2.145229	-2.145229
Na	7.506867	-1.072619	-3.217848
Na	13.941334	-1.072619	-1.072619
Na	11.796508	1.072619	-1.072619
Na	9.651692	1.072619	-3.217848
O	9.494671	0.916029	-0.916029
O	11.639486	-1.229200	-1.229200
O	7.349845	1.229200	-3.061268
O	9.808714	-1.229200	-3.061268
O	9.494671	3.374429	-3.374429
O	11.953530	3.374429	-0.916029
O	11.953530	0.916029	-3.374429
O	14.098356	1.229200	-1.229200
Be	0.000000	-4.290465	-4.290465
Be	2.144816	-6.435694	-6.435694
Na	-1.072413	-5.363085	-7.508313
Na	5.362054	-5.363085	-5.363085
Na	3.217229	-3.217846	-5.363085
Na	1.072413	-3.217846	-7.508313
O	0.915391	-3.374436	-5.206494
O	3.060207	-5.519665	-5.519665
O	-1.229435	-3.061265	-7.351733
O	1.229435	-5.519665	-7.351733
O	0.915391	-0.916036	-7.664894
O	3.374250	-0.916037	-5.206494
O	3.374250	-3.374436	-7.664894
O	5.519076	-3.061265	-5.519665
Be	4.289640	0.000000	-4.290465
Be	6.434456	-2.145229	-6.435694
Na	3.217227	-1.072619	-7.508313
Na	9.651694	-1.072619	-5.363085
Na	7.506868	1.072619	-5.363085
Na	5.362053	1.072619	-7.508313
O	5.205031	0.916029	-5.206494
O	7.349847	-1.229200	-5.519665
O	3.060205	1.229200	-7.351733
O	5.519074	-1.229200	-7.351733
O	5.205031	3.374429	-7.664894
O	7.663890	3.374429	-5.206494
O	7.663890	0.916029	-7.664894
O	9.808716	1.229200	-5.519665
