112

Be	0.000000	0.000000	0.000000
Be	2.184994	-2.185354	-2.185354
Na	-1.092497	-1.092677	-3.278031
Na	3.277491	1.092677	-1.092677
Na	5.462486	-1.092677	-1.092677
Na	1.092497	1.092677	-3.278031
O	3.107991	-1.261749	-1.261749
O	-1.261998	1.261749	-3.108959
O	1.261998	-1.261749	-3.108959
O	0.922997	0.923605	-0.923605
O	5.631986	1.261749	-1.261749
O	0.922997	3.447103	-3.447103
O	3.446992	3.447103	-0.923605
O	3.446992	0.923605	-3.447103
Be	4.369988	4.370708	0.000000
Be	6.554983	2.185354	-2.185354
Na	3.277491	3.278031	-3.278031
Na	7.647480	5.463385	-1.092677
Na	9.832474	3.278031	-1.092677
Na	5.462486	5.463385	-3.278031
O	7.477979	3.108959	-1.261749
O	3.107991	5.632457	-3.108959
O	5.631986	3.108959	-3.108959
O	5.292985	5.294312	-0.923605
O	10.001974	5.632457	-1.261749
O	5.292985	7.817811	-3.447103
O	7.816980	7.817811	-0.923605
O	7.816980	5.294312	-3.447103
Be	-4.369988	0.000000	-4.370708
Be	-2.184994	-2.185354	-6.556062
Na	-5.462486	-1.092677	-7.648739
Na	-1.092497	1.092677	-5.463385
Na	1.092497	-1.092677	-5.463385
Na	-3.277491	1.092677	-7.648739
O	-1.261998	-1.261749	-5.632457
O	-5.631986	1.261749	-7.479666
O	-3.107991	-1.261749	-7.479666
O	-3.446992	0.923605	-5.294312
O	1.261998	1.261749	-5.632457
O	-3.446992	3.447103	-7.817811
O	-0.922997	3.447103	-5.294312
O	-0.922997	0.923605	-7.817811
Be	0.000000	4.370708	-4.370708
Be	2.184994	2.185354	-6.556062
Na	-1.092497	3.278031	-7.648739
Na	3.277491	5.463385	-5.463385
Na	5.462486	3.278031	-5.463385
Na	1.092497	5.463385	-7.648739
O	3.107991	3.108959	-5.632457
O	-1.261998	5.632457	-7.479666
O	1.261998	3.108959	-7.479666
O	0.922997	5.294312	-5.294312
O	5.631986	5.632457	-5.632457
O	0.922997	7.817811	-7.817811
O	3.446992	7.817811	-5.294312
O	3.446992	5.294312	-7.817811
Be	4.369988	-4.370708	0.000000
Be	6.554983	-6.556062	-2.185354
Na	3.277491	-5.463385	-3.278031
Na	7.647480	-3.278031	-1.092677
Na	9.832474	-5.463385	-1.092677
Na	5.462486	-3.278031	-3.278031
O	7.477979	-5.632457	-1.261749
O	3.107991	-3.108959	-3.108959
O	5.631986	-5.632457	-3.108959
O	5.292985	-3.447103	-0.923605
O	10.001974	-3.108959	-1.261749
O	5.292985	-0.923605	-3.447103
O	7.816980	-0.923605	-0.923605
O	7.816980	-3.447103	-3.447103
Be	8.739977	0.000000	0.000000
Be	10.924971	-2.185354	-2.185354
Na	7.647480	-1.092677	-3.278031
Na	12.017468	1.092677	-1.092677
Na	14.202462	-1.092677	-1.092677
Na	9.832474	1.092677	-3.278031
O	11.847968	-1.261749	-1.261749
O	7.477979	1.261749	-3.108959
O	10.001974	-1.261749	-3.108959
O	9.662974	0.923605	-0.923605
O	14.371963	1.261749	-1.261749
O	9.662974	3.447103	-3.447103
O	12.186969	3.447103	-0.923605
O	12.186969	0.923605	-3.447103
Be	0.000000	-4.370708	-4.370708
Be	2.184994	-6.556062	-6.556062
Na	-1.092497	-5.463385	-7.648739
Na	3.277491	-3.278031	-5.463385
Na	5.462486	-5.463385	-5.463385
Na	1.092497	-3.278031	-7.648739
O	3.107991	-5.632457	-5.632457
O	-1.261998	-3.108959	-7.479666
O	1.261998	-5.632457	-7.479666
O	0.922997	-3.447103	-5.294312
O	5.631986	-3.108959	-5.632457
O	0.922997	-0.923605	-7.817811
O	3.446992	-0.923605	-5.294312
O	3.446992	-3.447103	-7.817811
Be	4.369988	0.000000	-4.370708
Be	6.554983	-2.185354	-6.556062
Na	3.277491	-1.092677	-7.648739
Na	7.647480	1.092677	-5.463385
Na	9.832474	-1.092677	-5.463385
Na	5.462486	1.092677	-7.648739
O	7.477979	-1.261749	-5.632457
O	3.107991	1.261749	-7.479666
O	5.631986	-1.261749	-7.479666
O	5.292985	0.923605	-5.294312
O	10.001974	1.261749	-5.632457
O	5.292985	3.447103	-7.817811
O	7.816980	3.447103	-5.294312
O	7.816980	0.923605	-7.817811
