112

O	-0.935672	0.935393	-3.564330
O	3.562807	-0.935393	-0.935393
O	0.935672	-0.935393	-3.564330
O	1.313563	1.314464	-1.314464
O	5.434151	0.935393	-0.935393
O	1.313563	3.185260	-3.185260
O	3.184916	3.185260	-1.314464
O	3.184916	1.314464	-3.185260
Sr	0.000000	0.000000	0.000000
Sr	2.249244	-2.249867	-2.249867
Ti	-1.124622	-1.124933	-3.374790
Ti	1.124622	1.124933	-3.374790
Ti	3.373857	1.124933	-1.124933
Ti	5.623101	-1.124933	-1.124933
O	3.562809	5.435119	-3.564330
O	8.061288	3.564332	-0.935393
O	5.434153	3.564332	-3.564330
O	5.812044	5.814189	-1.314464
O	9.932632	5.435119	-0.935393
O	5.812044	7.684986	-3.185260
O	7.683397	7.684986	-1.314464
O	7.683397	5.814189	-3.185260
Sr	4.498481	4.499726	0.000000
Sr	6.747725	2.249859	-2.249867
Ti	3.373859	3.374792	-3.374790
Ti	5.623103	5.624659	-3.374790
Ti	7.872338	5.624659	-1.124933
Ti	10.121582	3.374792	-1.124933
O	-5.434153	0.935393	-8.064056
O	-0.935674	-0.935393	-5.435119
O	-3.562809	-0.935393	-8.064056
O	-3.184918	1.314464	-5.814189
O	0.935670	0.935393	-5.435119
O	-3.184918	3.185260	-7.684986
O	-1.313565	3.185260	-5.814189
O	-1.313565	1.314464	-7.684986
Sr	-4.498481	0.000000	-4.499726
Sr	-2.249237	-2.249867	-6.749593
Ti	-5.623103	-1.124933	-7.874516
Ti	-3.373859	1.124933	-7.874516
Ti	-1.124624	1.124933	-5.624659
Ti	1.124620	-1.124933	-5.624659
O	-0.935672	5.435119	-8.064056
O	3.562807	3.564332	-5.435119
O	0.935672	3.564332	-8.064056
O	1.313563	5.814189	-5.814189
O	5.434151	5.435119	-5.435119
O	1.313563	7.684986	-7.684986
O	3.184916	7.684986	-5.814189
O	3.184916	5.814189	-7.684986
Sr	0.000000	4.499726	-4.499726
Sr	2.249244	2.249859	-6.749593
Ti	-1.124622	3.374792	-7.874516
Ti	1.124622	5.624659	-7.874516
Ti	3.373857	5.624659	-5.624659
Ti	5.623101	3.374792	-5.624659
O	3.562809	-3.564332	-3.564330
O	8.061288	-5.435119	-0.935393
O	5.434153	-5.435119	-3.564330
O	5.812044	-3.185262	-1.314464
O	9.932632	-3.564332	-0.935393
O	5.812044	-1.314466	-3.185260
O	7.683397	-1.314466	-1.314464
O	7.683397	-3.185262	-3.185260
Sr	4.498481	-4.499726	0.000000
Sr	6.747725	-6.749593	-2.249867
Ti	3.373859	-5.624659	-3.374790
Ti	5.623103	-3.374792	-3.374790
Ti	7.872338	-3.374792	-1.124933
Ti	10.121582	-5.624659	-1.124933
O	8.061290	0.935393	-3.564330
O	12.559769	-0.935393	-0.935393
O	9.932634	-0.935393	-3.564330
O	10.310525	1.314464	-1.314464
O	14.431113	0.935393	-0.935393
O	10.310525	3.185260	-3.185260
O	12.181878	3.185260	-1.314464
O	12.181878	1.314464	-3.185260
Sr	8.996962	0.000000	0.000000
Sr	11.246206	-2.249867	-2.249867
Ti	7.872340	-1.124933	-3.374790
Ti	10.121584	1.124933	-3.374790
Ti	12.370819	1.124933	-1.124933
Ti	14.620063	-1.124933	-1.124933
O	-0.935672	-3.564332	-8.064056
O	3.562807	-5.435119	-5.435119
O	0.935672	-5.435119	-8.064056
O	1.313563	-3.185262	-5.814189
O	5.434151	-3.564332	-5.435119
O	1.313563	-1.314466	-7.684986
O	3.184916	-1.314466	-5.814189
O	3.184916	-3.185262	-7.684986
Sr	0.000000	-4.499726	-4.499726
Sr	2.249244	-6.749593	-6.749593
Ti	-1.124622	-5.624659	-7.874516
Ti	1.124622	-3.374792	-7.874516
Ti	3.373857	-3.374792	-5.624659
Ti	5.623101	-5.624659	-5.624659
O	3.562809	0.935393	-8.064056
O	8.061288	-0.935393	-5.435119
O	5.434153	-0.935393	-8.064056
O	5.812044	1.314464	-5.814189
O	9.932632	0.935393	-5.435119
O	5.812044	3.185260	-7.684986
O	7.683397	3.185260	-5.814189
O	7.683397	1.314464	-7.684986
Sr	4.498481	0.000000	-4.499726
Sr	6.747725	-2.249867	-6.749593
Ti	3.373859	-1.124933	-7.874516
Ti	5.623103	1.124933	-7.874516
Ti	7.872338	1.124933	-5.624659
Ti	10.121582	-1.124933	-5.624659
