112

O	3.758201	-0.875283	-0.875283
O	-0.876442	0.875283	-3.764788
O	0.876442	-0.875283	-3.764788
O	1.440879	1.444753	-1.444753
O	5.511085	0.875283	-0.875283
O	1.440879	3.195318	-3.195318
O	3.193763	3.195318	-1.444753
O	3.193763	1.444753	-3.195318
Te	0.000000	0.000000	0.000000
Te	2.317321	-2.320035	-2.320035
W	-1.158661	-1.160018	-3.480053
W	3.475982	1.160018	-1.160018
W	5.793303	-1.160018	-1.160018
W	1.158661	1.160018	-3.480053
O	8.392843	3.764788	-0.875283
O	3.758201	5.515353	-3.764788
O	5.511085	3.764788	-3.764788
O	6.075522	6.084823	-1.444753
O	10.145727	5.515353	-0.875283
O	6.075522	7.835389	-3.195318
O	7.828406	7.835389	-1.444753
O	7.828406	6.084823	-3.195318
Te	4.634643	4.640071	0.000000
Te	6.951964	2.320035	-2.320035
W	3.475982	3.480053	-3.480053
W	8.110624	5.800088	-1.160018
W	10.427946	3.480053	-1.160018
W	5.793303	5.800088	-3.480053
O	-0.876442	-0.875283	-5.515353
O	-5.511085	0.875283	-8.404858
O	-3.758201	-0.875283	-8.404858
O	-3.193763	1.444753	-6.084823
O	0.876442	0.875283	-5.515353
O	-3.193763	3.195318	-7.835389
O	-1.440879	3.195318	-6.084823
O	-1.440879	1.444753	-7.835389
Te	-4.634643	0.000000	-4.640071
Te	-2.317321	-2.320035	-6.960106
W	-5.793303	-1.160018	-8.120123
W	-1.158661	1.160018	-5.800088
W	1.158661	-1.160018	-5.800088
W	-3.475982	1.160018	-8.120123
O	3.758201	3.764788	-5.515353
O	-0.876442	5.515353	-8.404858
O	0.876442	3.764788	-8.404858
O	1.440879	6.084823	-6.084823
O	5.511085	5.515353	-5.515353
O	1.440879	7.835389	-7.835389
O	3.193763	7.835389	-6.084823
O	3.193763	6.084823	-7.835389
Te	0.000000	4.640071	-4.640071
Te	2.317321	2.320035	-6.960106
W	-1.158661	3.480053	-8.120123
W	3.475982	5.800088	-5.800088
W	5.793303	3.480053	-5.800088
W	1.158661	5.800088	-8.120123
O	8.392843	-5.515353	-0.875283
O	3.758201	-3.764788	-3.764788
O	5.511085	-5.515353	-3.764788
O	6.075522	-3.195318	-1.444753
O	10.145727	-3.764788	-0.875283
O	6.075522	-1.444753	-3.195318
O	7.828406	-1.444753	-1.444753
O	7.828406	-3.195318	-3.195318
Te	4.634643	-4.640071	0.000000
Te	6.951964	-6.960106	-2.320035
W	3.475982	-5.800088	-3.480053
W	8.110624	-3.480053	-1.160018
W	10.427946	-5.800088	-1.160018
W	5.793303	-3.480053	-3.480053
O	13.027486	-0.875283	-0.875283
O	8.392843	0.875283	-3.764788
O	10.145727	-0.875283	-3.764788
O	10.710164	1.444753	-1.444753
O	14.780370	0.875283	-0.875283
O	10.710164	3.195318	-3.195318
O	12.463048	3.195318	-1.444753
O	12.463048	1.444753	-3.195318
Te	9.269285	0.000000	0.000000
Te	11.586606	-2.320035	-2.320035
W	8.110624	-1.160018	-3.480053
W	12.745267	1.160018	-1.160018
W	15.062588	-1.160018	-1.160018
W	10.427946	1.160018	-3.480053
O	3.758201	-5.515353	-5.515353
O	-0.876442	-3.764788	-8.404858
O	0.876442	-5.515353	-8.404858
O	1.440879	-3.195318	-6.084823
O	5.511085	-3.764788	-5.515353
O	1.440879	-1.444753	-7.835389
O	3.193763	-1.444753	-6.084823
O	3.193763	-3.195318	-7.835389
Te	0.000000	-4.640071	-4.640071
Te	2.317321	-6.960106	-6.960106
W	-1.158661	-5.800088	-8.120123
W	3.475982	-3.480053	-5.800088
W	5.793303	-5.800088	-5.800088
W	1.158661	-3.480053	-8.120123
O	8.392843	-0.875283	-5.515353
O	3.758201	0.875283	-8.404858
O	5.511085	-0.875283	-8.404858
O	6.075522	1.444753	-6.084823
O	10.145727	0.875283	-5.515353
O	6.075522	3.195318	-7.835389
O	7.828406	3.195318	-6.084823
O	7.828406	1.444753	-7.835389
Te	4.634643	0.000000	-4.640071
Te	6.951964	-2.320035	-6.960106
W	3.475982	-1.160018	-8.120123
W	8.110624	1.160018	-5.800088
W	10.427946	-1.160018	-5.800088
W	5.793303	1.160018	-8.120123
