112

Ge	0.000000	0.000000	0.000000
Ge	2.221799	-2.221987	-2.221987
O	1.039258	1.039614	-1.039614
O	3.261057	-1.182373	-1.182373
O	-1.182531	1.182373	-3.261601
O	1.182531	-1.182373	-3.261601
O	1.039258	3.404360	-3.404360
O	3.404330	3.404360	-1.039614
O	3.404330	1.039614	-3.404360
O	5.626129	1.182373	-1.182373
Yb	-1.110895	-1.110989	-3.332976
Yb	1.110895	1.110989	-3.332976
Yb	3.332693	1.110989	-1.110989
Yb	5.554492	-1.110989	-1.110989
Ge	4.443591	4.443971	0.000000
Ge	6.665390	2.221984	-2.221987
O	5.482849	5.483585	-1.039614
O	7.704648	3.261598	-1.182373
O	3.261060	5.626344	-3.261601
O	5.626122	3.261598	-3.261601
O	5.482849	7.848332	-3.404360
O	7.847921	7.848332	-1.039614
O	7.847921	5.483585	-3.404360
O	10.069720	5.626345	-1.182373
Yb	3.332696	3.332983	-3.332976
Yb	5.554485	5.554960	-3.332976
Yb	7.776284	5.554960	-1.110989
Yb	9.998083	3.332983	-1.110989
Ge	-4.443591	0.000000	-4.443971
Ge	-2.221792	-2.221987	-6.665958
O	-3.404333	1.039614	-5.483585
O	-1.182534	-1.182373	-5.626344
O	-5.626122	1.182373	-7.705572
O	-3.261060	-1.182373	-7.705572
O	-3.404333	3.404360	-7.848332
O	-1.039261	3.404360	-5.483585
O	-1.039261	1.039614	-7.848332
O	1.182538	1.182373	-5.626344
Yb	-5.554485	-1.110989	-7.776947
Yb	-3.332696	1.110989	-7.776947
Yb	-1.110897	1.110989	-5.554960
Yb	1.110902	-1.110989	-5.554960
Ge	0.000000	4.443971	-4.443971
Ge	2.221799	2.221984	-6.665958
O	1.039258	5.483585	-5.483585
O	3.261057	3.261598	-5.626344
O	-1.182531	5.626344	-7.705572
O	1.182531	3.261598	-7.705572
O	1.039258	7.848332	-7.848332
O	3.404330	7.848332	-5.483585
O	3.404330	5.483585	-7.848332
O	5.626129	5.626345	-5.626344
Yb	-1.110895	3.332983	-7.776947
Yb	1.110895	5.554960	-7.776947
Yb	3.332693	5.554960	-5.554960
Yb	5.554492	3.332983	-5.554960
Ge	4.443591	-4.443971	0.000000
Ge	6.665390	-6.665958	-2.221987
O	5.482849	-3.404357	-1.039614
O	7.704648	-5.626344	-1.182373
O	3.261060	-3.261598	-3.261601
O	5.626122	-5.626344	-3.261601
O	5.482849	-1.039611	-3.404360
O	7.847921	-1.039611	-1.039614
O	7.847921	-3.404357	-3.404360
O	10.069720	-3.261598	-1.182373
Yb	3.332696	-5.554960	-3.332976
Yb	5.554485	-3.332983	-3.332976
Yb	7.776284	-3.332983	-1.110989
Yb	9.998083	-5.554960	-1.110989
Ge	8.887182	0.000000	0.000000
Ge	11.108981	-2.221987	-2.221987
O	9.926440	1.039614	-1.039614
O	12.148239	-1.182373	-1.182373
O	7.704651	1.182373	-3.261601
O	10.069713	-1.182373	-3.261601
O	9.926440	3.404360	-3.404360
O	12.291512	3.404360	-1.039614
O	12.291512	1.039614	-3.404360
O	14.513311	1.182373	-1.182373
Yb	7.776287	-1.110989	-3.332976
Yb	9.998076	1.110989	-3.332976
Yb	12.219875	1.110989	-1.110989
Yb	14.441674	-1.110989	-1.110989
Ge	0.000000	-4.443971	-4.443971
Ge	2.221799	-6.665958	-6.665958
O	1.039258	-3.404357	-5.483585
O	3.261057	-5.626344	-5.626344
O	-1.182531	-3.261598	-7.705572
O	1.182531	-5.626344	-7.705572
O	1.039258	-1.039611	-7.848332
O	3.404330	-1.039611	-5.483585
O	3.404330	-3.404357	-7.848332
O	5.626129	-3.261598	-5.626344
Yb	-1.110895	-5.554960	-7.776947
Yb	1.110895	-3.332983	-7.776947
Yb	3.332693	-3.332983	-5.554960
Yb	5.554492	-5.554960	-5.554960
Ge	4.443591	0.000000	-4.443971
Ge	6.665390	-2.221987	-6.665958
O	5.482849	1.039614	-5.483585
O	7.704648	-1.182373	-5.626344
O	3.261060	1.182373	-7.705572
O	5.626122	-1.182373	-7.705572
O	5.482849	3.404360	-7.848332
O	7.847921	3.404360	-5.483585
O	7.847921	1.039614	-7.848332
O	10.069720	1.182373	-5.626344
Yb	3.332696	-1.110989	-7.776947
Yb	5.554485	1.110989	-7.776947
Yb	7.776284	1.110989	-5.554960
Yb	9.998083	-1.110989	-5.554960
