40

I	2.117729	2.117729	2.117729
Mg	0.000000	0.000000	0.000000
O	0.000000	2.117729	2.117729
O	2.117729	0.000000	2.117729
O	2.117729	2.117729	0.000000
I	2.117729	2.117729	6.353187
Mg	0.000000	0.000000	4.235458
O	0.000000	2.117729	6.353187
O	2.117729	0.000000	6.353187
O	2.117729	2.117729	4.235458
I	2.117729	6.353187	2.117729
Mg	0.000000	4.235458	0.000000
O	0.000000	6.353187	2.117729
O	2.117729	4.235458	2.117729
O	2.117729	6.353187	0.000000
I	2.117729	6.353187	6.353187
Mg	0.000000	4.235458	4.235458
O	0.000000	6.353187	6.353187
O	2.117729	4.235458	6.353187
O	2.117729	6.353187	4.235458
I	6.353187	2.117729	2.117729
Mg	4.235458	0.000000	0.000000
O	4.235458	2.117729	2.117729
O	6.353187	0.000000	2.117729
O	6.353187	2.117729	0.000000
I	6.353187	2.117729	6.353187
Mg	4.235458	0.000000	4.235458
O	4.235458	2.117729	6.353187
O	6.353187	0.000000	6.353187
O	6.353187	2.117729	4.235458
I	6.353187	6.353187	2.117729
Mg	4.235458	4.235458	0.000000
O	4.235458	6.353187	2.117729
O	6.353187	4.235458	2.117729
O	6.353187	6.353187	0.000000
I	6.353187	6.353187	6.353187
Mg	4.235458	4.235458	4.235458
O	4.235458	6.353187	6.353187
O	6.353187	4.235458	6.353187
O	6.353187	6.353187	4.235458
