40

In	0.000000	0.000000	0.000000
O	1.948870	0.000000	1.948870
O	0.000000	1.948870	1.948870
O	1.948870	1.948870	0.000000
Ti	1.948870	1.948870	1.948870
In	0.000000	0.000000	3.897733
O	1.948870	0.000000	5.846603
O	0.000000	1.948870	5.846603
O	1.948870	1.948870	3.897733
Ti	1.948870	1.948870	5.846603
In	0.000000	3.897733	0.000000
O	1.948870	3.897733	1.948870
O	0.000000	5.846603	1.948870
O	1.948870	5.846603	0.000000
Ti	1.948870	5.846603	1.948870
In	0.000000	3.897733	3.897733
O	1.948870	3.897733	5.846603
O	0.000000	5.846603	5.846603
O	1.948870	5.846603	3.897733
Ti	1.948870	5.846603	5.846603
In	3.897733	0.000000	0.000000
O	5.846603	0.000000	1.948870
O	3.897733	1.948870	1.948870
O	5.846603	1.948870	0.000000
Ti	5.846603	1.948870	1.948870
In	3.897733	0.000000	3.897733
O	5.846603	0.000000	5.846603
O	3.897733	1.948870	5.846603
O	5.846603	1.948870	3.897733
Ti	5.846603	1.948870	5.846603
In	3.897733	3.897733	0.000000
O	5.846603	3.897733	1.948870
O	3.897733	5.846603	1.948870
O	5.846603	5.846603	0.000000
Ti	5.846603	5.846603	1.948870
In	3.897733	3.897733	3.897733
O	5.846603	3.897733	5.846603
O	3.897733	5.846603	5.846603
O	5.846603	5.846603	3.897733
Ti	5.846603	5.846603	5.846603
