40

Cd	0.000000	0.000000	0.000000
N	1.817113	1.817113	1.817113
O	0.000000	1.817113	1.817113
O	1.817113	0.000000	1.817113
O	1.817113	1.817113	0.000000
Cd	0.000000	0.000000	3.634225
N	1.817113	1.817113	5.451338
O	0.000000	1.817113	5.451338
O	1.817113	0.000000	5.451338
O	1.817113	1.817113	3.634225
Cd	0.000000	3.634225	0.000000
N	1.817113	5.451338	1.817113
O	0.000000	5.451338	1.817113
O	1.817113	3.634225	1.817113
O	1.817113	5.451338	0.000000
Cd	0.000000	3.634225	3.634225
N	1.817113	5.451338	5.451338
O	0.000000	5.451338	5.451338
O	1.817113	3.634225	5.451338
O	1.817113	5.451338	3.634225
Cd	3.634225	0.000000	0.000000
N	5.451338	1.817113	1.817113
O	3.634225	1.817113	1.817113
O	5.451338	0.000000	1.817113
O	5.451338	1.817113	0.000000
Cd	3.634225	0.000000	3.634225
N	5.451338	1.817113	5.451338
O	3.634225	1.817113	5.451338
O	5.451338	0.000000	5.451338
O	5.451338	1.817113	3.634225
Cd	3.634225	3.634225	0.000000
N	5.451338	5.451338	1.817113
O	3.634225	5.451338	1.817113
O	5.451338	3.634225	1.817113
O	5.451338	5.451338	0.000000
Cd	3.634225	3.634225	3.634225
N	5.451338	5.451338	5.451338
O	3.634225	5.451338	5.451338
O	5.451338	3.634225	5.451338
O	5.451338	5.451338	3.634225
