40

Co	1.882369	1.882369	1.882369
Ge	0.000000	0.000000	0.000000
O	0.000000	1.882369	1.882369
O	1.882369	0.000000	1.882369
O	1.882369	1.882369	0.000000
Co	1.882369	1.882369	5.647106
Ge	0.000000	0.000000	3.764737
O	0.000000	1.882369	5.647106
O	1.882369	0.000000	5.647106
O	1.882369	1.882369	3.764737
Co	1.882369	5.647106	1.882369
Ge	0.000000	3.764737	0.000000
O	0.000000	5.647106	1.882369
O	1.882369	3.764737	1.882369
O	1.882369	5.647106	0.000000
Co	1.882369	5.647106	5.647106
Ge	0.000000	3.764737	3.764737
O	0.000000	5.647106	5.647106
O	1.882369	3.764737	5.647106
O	1.882369	5.647106	3.764737
Co	5.647106	1.882369	1.882369
Ge	3.764737	0.000000	0.000000
O	3.764737	1.882369	1.882369
O	5.647106	0.000000	1.882369
O	5.647106	1.882369	0.000000
Co	5.647106	1.882369	5.647106
Ge	3.764737	0.000000	3.764737
O	3.764737	1.882369	5.647106
O	5.647106	0.000000	5.647106
O	5.647106	1.882369	3.764737
Co	5.647106	5.647106	1.882369
Ge	3.764737	3.764737	0.000000
O	3.764737	5.647106	1.882369
O	5.647106	3.764737	1.882369
O	5.647106	5.647106	0.000000
Co	5.647106	5.647106	5.647106
Ge	3.764737	3.764737	3.764737
O	3.764737	5.647106	5.647106
O	5.647106	3.764737	5.647106
O	5.647106	5.647106	3.764737
