160

O	2.825473	0.000000	1.987360
O	0.000000	2.825473	1.987360
O	0.000000	2.825473	5.962081
O	2.825473	0.000000	5.962081
O	4.238210	1.412737	3.974721
O	1.412737	1.412737	0.000000
O	4.238210	4.238210	3.974721
O	1.412737	4.238210	0.000000
O	4.238210	1.412737	0.000000
O	1.412737	1.412737	3.974721
O	4.238210	4.238210	0.000000
O	1.412737	4.238210	3.974721
Sr	0.000000	0.000000	5.962081
Sr	2.825473	2.825473	5.962081
Sr	2.825473	2.825473	1.987360
Sr	0.000000	0.000000	1.987360
Ru	0.000000	2.825473	0.000000
Ru	2.825473	0.000000	3.974721
Ru	2.825473	0.000000	0.000000
Ru	0.000000	2.825473	3.974721
O	2.825473	0.000000	9.936802
O	0.000000	2.825473	9.936802
O	0.000000	2.825473	13.911523
O	2.825473	0.000000	13.911523
O	4.238210	1.412737	11.924163
O	1.412737	1.412737	7.949442
O	4.238210	4.238210	11.924163
O	1.412737	4.238210	7.949442
O	4.238210	1.412737	7.949442
O	1.412737	1.412737	11.924163
O	4.238210	4.238210	7.949442
O	1.412737	4.238210	11.924163
Sr	0.000000	0.000000	13.911523
Sr	2.825473	2.825473	13.911523
Sr	2.825473	2.825473	9.936802
Sr	0.000000	0.000000	9.936802
Ru	0.000000	2.825473	7.949442
Ru	2.825473	0.000000	11.924163
Ru	2.825473	0.000000	7.949442
Ru	0.000000	2.825473	11.924163
O	2.825473	5.650946	1.987360
O	0.000000	8.476420	1.987360
O	0.000000	8.476420	5.962081
O	2.825473	5.650946	5.962081
O	4.238210	7.063683	3.974721
O	1.412737	7.063683	0.000000
O	4.238210	9.889156	3.974721
O	1.412737	9.889156	0.000000
O	4.238210	7.063683	0.000000
O	1.412737	7.063683	3.974721
O	4.238210	9.889156	0.000000
O	1.412737	9.889156	3.974721
Sr	0.000000	5.650946	5.962081
Sr	2.825473	8.476420	5.962081
Sr	2.825473	8.476420	1.987360
Sr	0.000000	5.650946	1.987360
Ru	0.000000	8.476420	0.000000
Ru	2.825473	5.650946	3.974721
Ru	2.825473	5.650946	0.000000
Ru	0.000000	8.476420	3.974721
O	2.825473	5.650946	9.936802
O	0.000000	8.476420	9.936802
O	0.000000	8.476420	13.911523
O	2.825473	5.650946	13.911523
O	4.238210	7.063683	11.924163
O	1.412737	7.063683	7.949442
O	4.238210	9.889156	11.924163
O	1.412737	9.889156	7.949442
O	4.238210	7.063683	7.949442
O	1.412737	7.063683	11.924163
O	4.238210	9.889156	7.949442
O	1.412737	9.889156	11.924163
Sr	0.000000	5.650946	13.911523
Sr	2.825473	8.476420	13.911523
Sr	2.825473	8.476420	9.936802
Sr	0.000000	5.650946	9.936802
Ru	0.000000	8.476420	7.949442
Ru	2.825473	5.650946	11.924163
Ru	2.825473	5.650946	7.949442
Ru	0.000000	8.476420	11.924163
O	8.476420	0.000000	1.987360
O	5.650946	2.825473	1.987360
O	5.650946	2.825473	5.962081
O	8.476420	0.000000	5.962081
O	9.889156	1.412737	3.974721
O	7.063683	1.412737	0.000000
O	9.889156	4.238210	3.974721
O	7.063683	4.238210	0.000000
O	9.889156	1.412737	0.000000
O	7.063683	1.412737	3.974721
O	9.889156	4.238210	0.000000
O	7.063683	4.238210	3.974721
Sr	5.650946	0.000000	5.962081
Sr	8.476420	2.825473	5.962081
Sr	8.476420	2.825473	1.987360
Sr	5.650946	0.000000	1.987360
Ru	5.650946	2.825473	0.000000
Ru	8.476420	0.000000	3.974721
Ru	8.476420	0.000000	0.000000
Ru	5.650946	2.825473	3.974721
O	8.476420	0.000000	9.936802
O	5.650946	2.825473	9.936802
O	5.650946	2.825473	13.911523
O	8.476420	0.000000	13.911523
O	9.889156	1.412737	11.924163
O	7.063683	1.412737	7.949442
O	9.889156	4.238210	11.924163
O	7.063683	4.238210	7.949442
O	9.889156	1.412737	7.949442
O	7.063683	1.412737	11.924163
O	9.889156	4.238210	7.949442
O	7.063683	4.238210	11.924163
Sr	5.650946	0.000000	13.911523
Sr	8.476420	2.825473	13.911523
Sr	8.476420	2.825473	9.936802
Sr	5.650946	0.000000	9.936802
Ru	5.650946	2.825473	7.949442
Ru	8.476420	0.000000	11.924163
Ru	8.476420	0.000000	7.949442
Ru	5.650946	2.825473	11.924163
O	8.476420	5.650946	1.987360
O	5.650946	8.476420	1.987360
O	5.650946	8.476420	5.962081
O	8.476420	5.650946	5.962081
O	9.889156	7.063683	3.974721
O	7.063683	7.063683	0.000000
O	9.889156	9.889156	3.974721
O	7.063683	9.889156	0.000000
O	9.889156	7.063683	0.000000
O	7.063683	7.063683	3.974721
O	9.889156	9.889156	0.000000
O	7.063683	9.889156	3.974721
Sr	5.650946	5.650946	5.962081
Sr	8.476420	8.476420	5.962081
Sr	8.476420	8.476420	1.987360
Sr	5.650946	5.650946	1.987360
Ru	5.650946	8.476420	0.000000
Ru	8.476420	5.650946	3.974721
Ru	8.476420	5.650946	0.000000
Ru	5.650946	8.476420	3.974721
O	8.476420	5.650946	9.936802
O	5.650946	8.476420	9.936802
O	5.650946	8.476420	13.911523
O	8.476420	5.650946	13.911523
O	9.889156	7.063683	11.924163
O	7.063683	7.063683	7.949442
O	9.889156	9.889156	11.924163
O	7.063683	9.889156	7.949442
O	9.889156	7.063683	7.949442
O	7.063683	7.063683	11.924163
O	9.889156	9.889156	7.949442
O	7.063683	9.889156	11.924163
Sr	5.650946	5.650946	13.911523
Sr	8.476420	8.476420	13.911523
Sr	8.476420	8.476420	9.936802
Sr	5.650946	5.650946	9.936802
Ru	5.650946	8.476420	7.949442
Ru	8.476420	5.650946	11.924163
Ru	8.476420	5.650946	7.949442
Ru	5.650946	8.476420	11.924163
