40

O	2.110123	2.110123	0.000000
O	2.110123	0.000000	2.110123
O	0.000000	2.110123	2.110123
Sn	0.000000	0.000000	0.000000
Yb	2.110123	2.110123	2.110123
O	2.110123	2.110123	4.220245
O	2.110123	0.000000	6.330368
O	0.000000	2.110123	6.330368
Sn	0.000000	0.000000	4.220245
Yb	2.110123	2.110123	6.330368
O	2.110123	6.330368	0.000000
O	2.110123	4.220245	2.110123
O	0.000000	6.330368	2.110123
Sn	0.000000	4.220245	0.000000
Yb	2.110123	6.330368	2.110123
O	2.110123	6.330368	4.220245
O	2.110123	4.220245	6.330368
O	0.000000	6.330368	6.330368
Sn	0.000000	4.220245	4.220245
Yb	2.110123	6.330368	6.330368
O	6.330368	2.110123	0.000000
O	6.330368	0.000000	2.110123
O	4.220245	2.110123	2.110123
Sn	4.220245	0.000000	0.000000
Yb	6.330368	2.110123	2.110123
O	6.330368	2.110123	4.220245
O	6.330368	0.000000	6.330368
O	4.220245	2.110123	6.330368
Sn	4.220245	0.000000	4.220245
Yb	6.330368	2.110123	6.330368
O	6.330368	6.330368	0.000000
O	6.330368	4.220245	2.110123
O	4.220245	6.330368	2.110123
Sn	4.220245	4.220245	0.000000
Yb	6.330368	6.330368	2.110123
O	6.330368	6.330368	4.220245
O	6.330368	4.220245	6.330368
O	4.220245	6.330368	6.330368
Sn	4.220245	4.220245	4.220245
Yb	6.330368	6.330368	6.330368
