40

O	0.000000	2.299475	2.299475
O	2.299475	0.000000	2.299475
O	2.299475	2.299475	0.000000
Ba	0.000000	0.000000	0.000000
Th	2.299475	2.299475	2.299475
O	0.000000	2.299475	6.898424
O	2.299475	0.000000	6.898424
O	2.299475	2.299475	4.598949
Ba	0.000000	0.000000	4.598949
Th	2.299475	2.299475	6.898424
O	0.000000	6.898424	2.299475
O	2.299475	4.598949	2.299475
O	2.299475	6.898424	0.000000
Ba	0.000000	4.598949	0.000000
Th	2.299475	6.898424	2.299475
O	0.000000	6.898424	6.898424
O	2.299475	4.598949	6.898424
O	2.299475	6.898424	4.598949
Ba	0.000000	4.598949	4.598949
Th	2.299475	6.898424	6.898424
O	4.598949	2.299475	2.299475
O	6.898424	0.000000	2.299475
O	6.898424	2.299475	0.000000
Ba	4.598949	0.000000	0.000000
Th	6.898424	2.299475	2.299475
O	4.598949	2.299475	6.898424
O	6.898424	0.000000	6.898424
O	6.898424	2.299475	4.598949
Ba	4.598949	0.000000	4.598949
Th	6.898424	2.299475	6.898424
O	4.598949	6.898424	2.299475
O	6.898424	4.598949	2.299475
O	6.898424	6.898424	0.000000
Ba	4.598949	4.598949	0.000000
Th	6.898424	6.898424	2.299475
O	4.598949	6.898424	6.898424
O	6.898424	4.598949	6.898424
O	6.898424	6.898424	4.598949
Ba	4.598949	4.598949	4.598949
Th	6.898424	6.898424	6.898424
