40

Fe	1.920660	1.920660	1.920660
Ir	0.000000	0.000000	0.000000
O	0.000000	1.920660	1.920660
O	1.920660	0.000000	1.920660
O	1.920660	1.920660	0.000000
Fe	1.920660	1.920660	5.761979
Ir	0.000000	0.000000	3.841319
O	0.000000	1.920660	5.761979
O	1.920660	0.000000	5.761979
O	1.920660	1.920660	3.841319
Fe	1.920660	5.761979	1.920660
Ir	0.000000	3.841319	0.000000
O	0.000000	5.761979	1.920660
O	1.920660	3.841319	1.920660
O	1.920660	5.761979	0.000000
Fe	1.920660	5.761979	5.761979
Ir	0.000000	3.841319	3.841319
O	0.000000	5.761979	5.761979
O	1.920660	3.841319	5.761979
O	1.920660	5.761979	3.841319
Fe	5.761979	1.920660	1.920660
Ir	3.841319	0.000000	0.000000
O	3.841319	1.920660	1.920660
O	5.761979	0.000000	1.920660
O	5.761979	1.920660	0.000000
Fe	5.761979	1.920660	5.761979
Ir	3.841319	0.000000	3.841319
O	3.841319	1.920660	5.761979
O	5.761979	0.000000	5.761979
O	5.761979	1.920660	3.841319
Fe	5.761979	5.761979	1.920660
Ir	3.841319	3.841319	0.000000
O	3.841319	5.761979	1.920660
O	5.761979	3.841319	1.920660
O	5.761979	5.761979	0.000000
Fe	5.761979	5.761979	5.761979
Ir	3.841319	3.841319	3.841319
O	3.841319	5.761979	5.761979
O	5.761979	3.841319	5.761979
O	5.761979	5.761979	3.841319
