40

Fe	1.855443	1.855443	1.855443
Mo	0.000000	0.000000	0.000000
O	0.000000	1.855443	1.855443
O	1.855443	0.000000	1.855443
O	1.855443	1.855443	0.000000
Fe	1.855443	1.855443	5.566329
Mo	0.000000	0.000000	3.710886
O	0.000000	1.855443	5.566329
O	1.855443	0.000000	5.566329
O	1.855443	1.855443	3.710886
Fe	1.855443	5.566329	1.855443
Mo	0.000000	3.710886	0.000000
O	0.000000	5.566329	1.855443
O	1.855443	3.710886	1.855443
O	1.855443	5.566329	0.000000
Fe	1.855443	5.566329	5.566329
Mo	0.000000	3.710886	3.710886
O	0.000000	5.566329	5.566329
O	1.855443	3.710886	5.566329
O	1.855443	5.566329	3.710886
Fe	5.566329	1.855443	1.855443
Mo	3.710886	0.000000	0.000000
O	3.710886	1.855443	1.855443
O	5.566329	0.000000	1.855443
O	5.566329	1.855443	0.000000
Fe	5.566329	1.855443	5.566329
Mo	3.710886	0.000000	3.710886
O	3.710886	1.855443	5.566329
O	5.566329	0.000000	5.566329
O	5.566329	1.855443	3.710886
Fe	5.566329	5.566329	1.855443
Mo	3.710886	3.710886	0.000000
O	3.710886	5.566329	1.855443
O	5.566329	3.710886	1.855443
O	5.566329	5.566329	0.000000
Fe	5.566329	5.566329	5.566329
Mo	3.710886	3.710886	3.710886
O	3.710886	5.566329	5.566329
O	5.566329	3.710886	5.566329
O	5.566329	5.566329	3.710886
