320

Cu	7.151128	0.274773	0.000000
Cu	4.767419	-2.383709	4.492646
Cu	4.492646	-0.000000	2.383709
Cu	4.492646	4.767419	-2.383709
Cu	4.767419	2.383709	0.274773
Cu	2.383709	4.492646	-0.000000
Cu	2.383709	0.274773	4.767419
Cu	0.000000	2.383709	4.492646
Cu	0.274773	0.000000	7.151128
Cu	0.274773	4.767419	2.383709
Cu	-0.000000	7.151128	0.274773
Cu	-2.383709	4.492646	4.767419
O	7.899541	-0.955866	1.248954
O	5.723285	3.518465	-3.132122
O	6.016373	1.635297	-0.955866
O	5.723285	-1.248954	3.132122
O	3.518465	3.132122	-0.955866
O	3.132122	0.955866	1.248954
O	3.132122	-0.955866	3.518465
O	3.518465	-3.132122	5.723285
O	5.723285	1.248954	1.635297
O	1.248954	3.132122	0.955866
O	0.955866	1.248954	3.132122
O	3.132122	5.723285	-1.248954
O	1.635297	-0.955866	6.016373
O	3.811553	3.518465	1.635297
O	3.518465	1.635297	3.811553
O	-0.955866	3.518465	3.132122
O	1.248954	7.899541	-0.955866
O	1.635297	5.723285	1.248954
O	1.635297	3.811553	3.518465
O	1.248954	1.635297	5.723285
O	-0.955866	6.016373	1.635297
O	-1.248954	3.132122	5.723285
O	-0.955866	1.248954	7.899541
O	-3.132122	5.723285	3.518465
Te	2.383709	-2.383709	2.383709
Te	2.383709	2.383709	-2.383709
Te	-2.383709	2.383709	2.383709
Te	2.383709	2.383709	2.383709
Cu	2.383709	5.042192	4.767419
Cu	0.000000	2.383709	9.260065
Cu	-0.274773	4.767419	7.151128
Cu	-0.274773	9.534838	2.383709
Cu	0.000000	7.151128	5.042192
Cu	-2.383709	9.260065	4.767419
Cu	-2.383709	5.042192	9.534838
Cu	-4.767419	7.151128	9.260065
Cu	-4.492646	4.767419	11.918547
Cu	-4.492646	9.534838	7.151128
Cu	-4.767419	11.918547	5.042192
Cu	-7.151128	9.260065	9.534838
O	3.132122	3.811553	6.016373
O	0.955866	8.285884	1.635297
O	1.248954	6.402716	3.811553
O	0.955866	3.518465	7.899541
O	-1.248954	7.899541	3.811553
O	-1.635297	5.723285	6.016373
O	-1.635297	3.811553	8.285884
O	-1.248954	1.635297	10.490704
O	0.955866	6.016373	6.402716
O	-3.518465	7.899541	5.723285
O	-3.811553	6.016373	7.899541
O	-1.635297	10.490704	3.518465
O	-3.132122	3.811553	10.783792
O	-0.955866	8.285884	6.402716
O	-1.248954	6.402716	8.578972
O	-5.723285	8.285884	7.899541
O	-3.518465	12.666960	3.811553
O	-3.132122	10.490704	6.016373
O	-3.132122	8.578972	8.285884
O	-3.518465	6.402716	10.490704
O	-5.723285	10.783792	6.402716
O	-6.016373	7.899541	10.490704
O	-5.723285	6.016373	12.666960
O	-7.899541	10.490704	8.285884
Te	-2.383709	2.383709	7.151128
Te	-2.383709	7.151128	2.383709
Te	-7.151128	7.151128	7.151128
Te	-2.383709	7.151128	7.151128
Cu	11.918547	5.042192	-4.767419
Cu	9.534838	2.383709	-0.274773
Cu	9.260065	4.767419	-2.383709
Cu	9.260065	9.534838	-7.151128
Cu	9.534838	7.151128	-4.492646
Cu	7.151128	9.260065	-4.767419
Cu	7.151128	5.042192	0.000000
Cu	4.767419	7.151128	-0.274773
Cu	5.042192	4.767419	2.383709
Cu	5.042192	9.534838	-2.383709
Cu	4.767419	11.918547	-4.492646
Cu	2.383709	9.260065	0.000000
O	12.666960	3.811553	-3.518465
O	10.490704	8.285884	-7.899541
O	10.783792	6.402716	-5.723285
O	10.490704	3.518465	-1.635297
O	8.285884	7.899541	-5.723285
O	7.899541	5.723285	-3.518465
O	7.899541	3.811553	-1.248954
O	8.285884	1.635297	0.955866
O	10.490704	6.016373	-3.132122
O	6.016373	7.899541	-3.811553
O	5.723285	6.016373	-1.635297
O	7.899541	10.490704	-6.016373
O	6.402716	3.811553	1.248954
O	8.578972	8.285884	-3.132122
O	8.285884	6.402716	-0.955866
O	3.811553	8.285884	-1.635297
O	6.016373	12.666960	-5.723285
O	6.402716	10.490704	-3.518465
O	6.402716	8.578972	-1.248954
O	6.016373	6.402716	0.955866
O	3.811553	10.783792	-3.132122
O	3.518465	7.899541	0.955866
O	3.811553	6.016373	3.132122
O	1.635297	10.490704	-1.248954
Te	7.151128	2.383709	-2.383709
Te	7.151128	7.151128	-7.151128
Te	2.383709	7.151128	-2.383709
Te	7.151128	7.151128	-2.383709
Cu	7.151128	9.809611	0.000000
Cu	4.767419	7.151128	4.492646
Cu	4.492646	9.534838	2.383709
Cu	4.492646	14.302257	-2.383709
Cu	4.767419	11.918547	0.274773
Cu	2.383709	14.027484	0.000000
Cu	2.383709	9.809611	4.767419
Cu	0.000000	11.918547	4.492646
Cu	0.274773	9.534838	7.151128
Cu	0.274773	14.302257	2.383709
Cu	0.000000	16.685966	0.274773
Cu	-2.383709	14.027484	4.767419
O	7.899541	8.578972	1.248954
O	5.723285	13.053303	-3.132122
O	6.016373	11.170135	-0.955866
O	5.723285	8.285884	3.132122
O	3.518465	12.666960	-0.955866
O	3.132122	10.490704	1.248954
O	3.132122	8.578972	3.518465
O	3.518465	6.402716	5.723285
O	5.723285	10.783792	1.635297
O	1.248954	12.666960	0.955866
O	0.955866	10.783792	3.132122
O	3.132122	15.258123	-1.248954
O	1.635297	8.578972	6.016373
O	3.811553	13.053303	1.635297
O	3.518465	11.170135	3.811553
O	-0.955866	13.053303	3.132122
O	1.248954	17.434379	-0.955866
O	1.635297	15.258123	1.248954
O	1.635297	13.346391	3.518465
O	1.248954	11.170135	5.723285
O	-0.955866	15.551211	1.635297
O	-1.248954	12.666960	5.723285
O	-0.955866	10.783792	7.899541
O	-3.132122	15.258123	3.518465
Te	2.383709	7.151128	2.383709
Te	2.383709	11.918547	-2.383709
Te	-2.383709	11.918547	2.383709
Te	2.383709	11.918547	2.383709
Cu	11.918547	-4.492646	4.767419
Cu	9.534838	-7.151128	9.260065
Cu	9.260065	-4.767419	7.151128
Cu	9.260065	0.000000	2.383709
Cu	9.534838	-2.383709	5.042192
Cu	7.151128	-0.274773	4.767419
Cu	7.151128	-4.492646	9.534838
Cu	4.767419	-2.383709	9.260065
Cu	5.042192	-4.767419	11.918547
Cu	5.042192	0.000000	7.151128
Cu	4.767419	2.383709	5.042192
Cu	2.383709	-0.274773	9.534838
O	12.666960	-5.723285	6.016373
O	10.490704	-1.248954	1.635297
O	10.783792	-3.132122	3.811553
O	10.490704	-6.016373	7.899541
O	8.285884	-1.635297	3.811553
O	7.899541	-3.811553	6.016373
O	7.899541	-5.723285	8.285884
O	8.285884	-7.899541	10.490704
O	10.490704	-3.518465	6.402716
O	6.016373	-1.635297	5.723285
O	5.723285	-3.518465	7.899541
O	7.899541	0.955866	3.518465
O	6.402716	-5.723285	10.783792
O	8.578972	-1.248954	6.402716
O	8.285884	-3.132122	8.578972
O	3.811553	-1.248954	7.899541
O	6.016373	3.132122	3.811553
O	6.402716	0.955866	6.016373
O	6.402716	-0.955866	8.285884
O	6.016373	-3.132122	10.490704
O	3.811553	1.248954	6.402716
O	3.518465	-1.635297	10.490704
O	3.811553	-3.518465	12.666960
O	1.635297	0.955866	8.285884
Te	7.151128	-7.151128	7.151128
Te	7.151128	-2.383709	2.383709
Te	2.383709	-2.383709	7.151128
Te	7.151128	-2.383709	7.151128
Cu	7.151128	0.274773	9.534838
Cu	4.767419	-2.383709	14.027484
Cu	4.492646	0.000000	11.918547
Cu	4.492646	4.767419	7.151128
Cu	4.767419	2.383709	9.809611
Cu	2.383709	4.492646	9.534838
Cu	2.383709	0.274773	14.302257
Cu	0.000000	2.383709	14.027484
Cu	0.274773	0.000000	16.685966
Cu	0.274773	4.767419	11.918547
Cu	0.000000	7.151128	9.809611
Cu	-2.383709	4.492646	14.302257
O	7.899541	-0.955866	10.783792
O	5.723285	3.518465	6.402716
O	6.016373	1.635297	8.578972
O	5.723285	-1.248954	12.666960
O	3.518465	3.132122	8.578972
O	3.132122	0.955866	10.783792
O	3.132122	-0.955866	13.053303
O	3.518465	-3.132122	15.258123
O	5.723285	1.248954	11.170135
O	1.248954	3.132122	10.490704
O	0.955866	1.248954	12.666960
O	3.132122	5.723285	8.285884
O	1.635297	-0.955866	15.551211
O	3.811553	3.518465	11.170135
O	3.518465	1.635297	13.346391
O	-0.955866	3.518465	12.666960
O	1.248954	7.899541	8.578972
O	1.635297	5.723285	10.783792
O	1.635297	3.811553	13.053303
O	1.248954	1.635297	15.258123
O	-0.955866	6.016373	11.170135
O	-1.248954	3.132122	15.258123
O	-0.955866	1.248954	17.434379
O	-3.132122	5.723285	13.053303
Te	2.383709	-2.383709	11.918547
Te	2.383709	2.383709	7.151128
Te	-2.383709	2.383709	11.918547
Te	2.383709	2.383709	11.918547
Cu	16.685966	0.274773	0.000000
Cu	14.302257	-2.383709	4.492646
Cu	14.027484	0.000000	2.383709
Cu	14.027484	4.767419	-2.383709
Cu	14.302257	2.383709	0.274773
Cu	11.918547	4.492646	0.000000
Cu	11.918547	0.274773	4.767419
Cu	9.534838	2.383709	4.492646
Cu	9.809611	0.000000	7.151128
Cu	9.809611	4.767419	2.383709
Cu	9.534838	7.151128	0.274773
Cu	7.151128	4.492646	4.767419
O	17.434379	-0.955866	1.248954
O	15.258123	3.518465	-3.132122
O	15.551211	1.635297	-0.955866
O	15.258123	-1.248954	3.132122
O	13.053303	3.132122	-0.955866
O	12.666960	0.955866	1.248954
O	12.666960	-0.955866	3.518465
O	13.053303	-3.132122	5.723285
O	15.258123	1.248954	1.635297
O	10.783792	3.132122	0.955866
O	10.490704	1.248954	3.132122
O	12.666960	5.723285	-1.248954
O	11.170135	-0.955866	6.016373
O	13.346391	3.518465	1.635297
O	13.053303	1.635297	3.811553
O	8.578972	3.518465	3.132122
O	10.783792	7.899541	-0.955866
O	11.170135	5.723285	1.248954
O	11.170135	3.811553	3.518465
O	10.783792	1.635297	5.723285
O	8.578972	6.016373	1.635297
O	8.285884	3.132122	5.723285
O	8.578972	1.248954	7.899541
O	6.402716	5.723285	3.518465
Te	11.918547	-2.383709	2.383709
Te	11.918547	2.383709	-2.383709
Te	7.151128	2.383709	2.383709
Te	11.918547	2.383709	2.383709
Cu	11.918547	5.042192	4.767419
Cu	9.534838	2.383709	9.260065
Cu	9.260065	4.767419	7.151128
Cu	9.260065	9.534838	2.383709
Cu	9.534838	7.151128	5.042192
Cu	7.151128	9.260065	4.767419
Cu	7.151128	5.042192	9.534838
Cu	4.767419	7.151128	9.260065
Cu	5.042192	4.767419	11.918547
Cu	5.042192	9.534838	7.151128
Cu	4.767419	11.918547	5.042192
Cu	2.383709	9.260065	9.534838
O	12.666960	3.811553	6.016373
O	10.490704	8.285884	1.635297
O	10.783792	6.402716	3.811553
O	10.490704	3.518465	7.899541
O	8.285884	7.899541	3.811553
O	7.899541	5.723285	6.016373
O	7.899541	3.811553	8.285884
O	8.285884	1.635297	10.490704
O	10.490704	6.016373	6.402716
O	6.016373	7.899541	5.723285
O	5.723285	6.016373	7.899541
O	7.899541	10.490704	3.518465
O	6.402716	3.811553	10.783792
O	8.578972	8.285884	6.402716
O	8.285884	6.402716	8.578972
O	3.811553	8.285884	7.899541
O	6.016373	12.666960	3.811553
O	6.402716	10.490704	6.016373
O	6.402716	8.578972	8.285884
O	6.016373	6.402716	10.490704
O	3.811553	10.783792	6.402716
O	3.518465	7.899541	10.490704
O	3.811553	6.016373	12.666960
O	1.635297	10.490704	8.285884
Te	7.151128	2.383709	7.151128
Te	7.151128	7.151128	2.383709
Te	2.383709	7.151128	7.151128
Te	7.151128	7.151128	7.151128
