112

Cr	5.268740	5.268740	5.268740
Cr	3.161250	3.161250	5.268740
Cr	5.268740	3.161250	3.161250
Cr	3.161250	5.268740	3.161250
Ni	0.000000	0.000000	0.000000
Ni	2.107510	2.107510	2.107510
O	3.245690	3.245690	3.245690
O	5.184310	5.184310	3.245690
O	3.245690	5.184310	5.184310
O	5.184310	3.245690	5.184310
O	7.291820	7.291820	7.291820
O	5.353190	5.353190	7.291820
O	5.353190	7.291820	5.353190
O	7.291820	5.353190	5.353190
Cr	9.483741	9.483741	5.268740
Cr	7.376251	7.376251	5.268740
Cr	9.483741	7.376251	3.161250
Cr	7.376251	9.483741	3.161250
Ni	4.215001	4.215001	0.000000
Ni	6.322511	6.322511	2.107510
O	7.460691	7.460691	3.245690
O	9.399311	9.399311	3.245690
O	7.460691	9.399311	5.184310
O	9.399311	7.460691	5.184310
O	11.506821	11.506821	7.291820
O	9.568191	9.568191	7.291820
O	9.568191	11.506821	5.353190
O	11.506821	9.568191	5.353190
Cr	9.483741	5.268740	9.483741
Cr	7.376251	3.161250	9.483741
Cr	9.483741	3.161250	7.376251
Cr	7.376251	5.268740	7.376251
Ni	4.215001	0.000000	4.215001
Ni	6.322511	2.107510	6.322511
O	7.460691	3.245690	7.460691
O	9.399311	5.184310	7.460691
O	7.460691	5.184310	9.399311
O	9.399311	3.245690	9.399311
O	11.506821	7.291820	11.506821
O	9.568191	5.353190	11.506821
O	9.568191	7.291820	9.568191
O	11.506821	5.353190	9.568191
Cr	13.698741	9.483741	9.483741
Cr	11.591251	7.376251	9.483741
Cr	13.698741	7.376251	7.376251
Cr	11.591251	9.483741	7.376251
Ni	8.430001	4.215001	4.215001
Ni	10.537511	6.322511	6.322511
O	11.675691	7.460691	7.460691
O	13.614311	9.399311	7.460691
O	11.675691	9.399311	9.399311
O	13.614311	7.460691	9.399311
O	15.721821	11.506821	11.506821
O	13.783191	9.568191	11.506821
O	13.783191	11.506821	9.568191
O	15.721821	9.568191	9.568191
Cr	5.268740	9.483741	9.483741
Cr	3.161250	7.376251	9.483741
Cr	5.268740	7.376251	7.376251
Cr	3.161250	9.483741	7.376251
Ni	0.000000	4.215001	4.215001
Ni	2.107510	6.322511	6.322511
O	3.245690	7.460691	7.460691
O	5.184310	9.399311	7.460691
O	3.245690	9.399311	9.399311
O	5.184310	7.460691	9.399311
O	7.291820	11.506821	11.506821
O	5.353190	9.568191	11.506821
O	5.353190	11.506821	9.568191
O	7.291820	9.568191	9.568191
Cr	9.483741	13.698741	9.483741
Cr	7.376251	11.591251	9.483741
Cr	9.483741	11.591251	7.376251
Cr	7.376251	13.698741	7.376251
Ni	4.215001	8.430001	4.215001
Ni	6.322511	10.537511	6.322511
O	7.460691	11.675691	7.460691
O	9.399311	13.614311	7.460691
O	7.460691	13.614311	9.399311
O	9.399311	11.675691	9.399311
O	11.506821	15.721821	11.506821
O	9.568191	13.783191	11.506821
O	9.568191	15.721821	9.568191
O	11.506821	13.783191	9.568191
Cr	9.483741	9.483741	13.698741
Cr	7.376251	7.376251	13.698741
Cr	9.483741	7.376251	11.591251
Cr	7.376251	9.483741	11.591251
Ni	4.215001	4.215001	8.430001
Ni	6.322511	6.322511	10.537511
O	7.460691	7.460691	11.675691
O	9.399311	9.399311	11.675691
O	7.460691	9.399311	13.614311
O	9.399311	7.460691	13.614311
O	11.506821	11.506821	15.721821
O	9.568191	9.568191	15.721821
O	9.568191	11.506821	13.783191
O	11.506821	9.568191	13.783191
Cr	13.698741	13.698741	13.698741
Cr	11.591251	11.591251	13.698741
Cr	13.698741	11.591251	11.591251
Cr	11.591251	13.698741	11.591251
Ni	8.430001	8.430001	8.430001
Ni	10.537511	10.537511	10.537511
O	11.675691	11.675691	11.675691
O	13.614311	13.614311	11.675691
O	11.675691	13.614311	13.614311
O	13.614311	11.675691	13.614311
O	15.721821	15.721821	15.721821
O	13.783191	13.783191	15.721821
O	13.783191	15.721821	13.783191
O	15.721821	13.783191	13.783191
