40

O	2.106367	2.106367	0.000000
O	2.106367	0.000000	2.106367
O	0.000000	2.106367	2.106367
Pb	0.000000	0.000000	0.000000
Sb	2.106367	2.106367	2.106367
O	2.106367	2.106367	4.212735
O	2.106367	0.000000	6.319102
O	0.000000	2.106367	6.319102
Pb	0.000000	0.000000	4.212735
Sb	2.106367	2.106367	6.319102
O	2.106367	6.319102	0.000000
O	2.106367	4.212735	2.106367
O	0.000000	6.319102	2.106367
Pb	0.000000	4.212735	0.000000
Sb	2.106367	6.319102	2.106367
O	2.106367	6.319102	4.212735
O	2.106367	4.212735	6.319102
O	0.000000	6.319102	6.319102
Pb	0.000000	4.212735	4.212735
Sb	2.106367	6.319102	6.319102
O	6.319102	2.106367	0.000000
O	6.319102	0.000000	2.106367
O	4.212735	2.106367	2.106367
Pb	4.212735	0.000000	0.000000
Sb	6.319102	2.106367	2.106367
O	6.319102	2.106367	4.212735
O	6.319102	0.000000	6.319102
O	4.212735	2.106367	6.319102
Pb	4.212735	0.000000	4.212735
Sb	6.319102	2.106367	6.319102
O	6.319102	6.319102	0.000000
O	6.319102	4.212735	2.106367
O	4.212735	6.319102	2.106367
Pb	4.212735	4.212735	0.000000
Sb	6.319102	6.319102	2.106367
O	6.319102	6.319102	4.212735
O	6.319102	4.212735	6.319102
O	4.212735	6.319102	6.319102
Pb	4.212735	4.212735	4.212735
Sb	6.319102	6.319102	6.319102
