40

Ge	0.000000	0.000000	0.000000
O	2.172922	2.172922	0.000000
O	2.172922	0.000000	2.172922
O	0.000000	2.172922	2.172922
Tb	2.172922	2.172922	2.172922
Ge	0.000000	0.000000	4.345845
O	2.172922	2.172922	4.345845
O	2.172922	0.000000	6.518767
O	0.000000	2.172922	6.518767
Tb	2.172922	2.172922	6.518767
Ge	0.000000	4.345845	0.000000
O	2.172922	6.518767	0.000000
O	2.172922	4.345845	2.172922
O	0.000000	6.518767	2.172922
Tb	2.172922	6.518767	2.172922
Ge	0.000000	4.345845	4.345845
O	2.172922	6.518767	4.345845
O	2.172922	4.345845	6.518767
O	0.000000	6.518767	6.518767
Tb	2.172922	6.518767	6.518767
Ge	4.345845	0.000000	0.000000
O	6.518767	2.172922	0.000000
O	6.518767	0.000000	2.172922
O	4.345845	2.172922	2.172922
Tb	6.518767	2.172922	2.172922
Ge	4.345845	0.000000	4.345845
O	6.518767	2.172922	4.345845
O	6.518767	0.000000	6.518767
O	4.345845	2.172922	6.518767
Tb	6.518767	2.172922	6.518767
Ge	4.345845	4.345845	0.000000
O	6.518767	6.518767	0.000000
O	6.518767	4.345845	2.172922
O	4.345845	6.518767	2.172922
Tb	6.518767	6.518767	2.172922
Ge	4.345845	4.345845	4.345845
O	6.518767	6.518767	4.345845
O	6.518767	4.345845	6.518767
O	4.345845	6.518767	6.518767
Tb	6.518767	6.518767	6.518767
