40

Ni	0.000000	0.000000	0.000000
O	1.968470	0.000000	1.968470
O	0.000000	1.968470	1.968470
O	1.968470	1.968470	0.000000
Sb	1.968470	1.968470	1.968470
Ni	0.000000	0.000000	3.936956
O	1.968470	0.000000	5.905426
O	0.000000	1.968470	5.905426
O	1.968470	1.968470	3.936956
Sb	1.968470	1.968470	5.905426
Ni	0.000000	3.936956	0.000000
O	1.968470	3.936956	1.968470
O	0.000000	5.905426	1.968470
O	1.968470	5.905426	0.000000
Sb	1.968470	5.905426	1.968470
Ni	0.000000	3.936956	3.936956
O	1.968470	3.936956	5.905426
O	0.000000	5.905426	5.905426
O	1.968470	5.905426	3.936956
Sb	1.968470	5.905426	5.905426
Ni	3.936956	0.000000	0.000000
O	5.905426	0.000000	1.968470
O	3.936956	1.968470	1.968470
O	5.905426	1.968470	0.000000
Sb	5.905426	1.968470	1.968470
Ni	3.936956	0.000000	3.936956
O	5.905426	0.000000	5.905426
O	3.936956	1.968470	5.905426
O	5.905426	1.968470	3.936956
Sb	5.905426	1.968470	5.905426
Ni	3.936956	3.936956	0.000000
O	5.905426	3.936956	1.968470
O	3.936956	5.905426	1.968470
O	5.905426	5.905426	0.000000
Sb	5.905426	5.905426	1.968470
Ni	3.936956	3.936956	3.936956
O	5.905426	3.936956	5.905426
O	3.936956	5.905426	5.905426
O	5.905426	5.905426	3.936956
Sb	5.905426	5.905426	5.905426
