112

Co	0.000000	0.000000	0.000000
Co	2.244055	-2.236071	-2.236071
O	3.404071	-1.090815	-1.090815
O	-1.084038	1.090815	-3.381327
O	1.084038	-1.090815	-3.381327
O	1.160017	1.145256	-1.145256
O	5.572147	1.090815	-1.090815
O	1.160017	3.326886	-3.326886
O	3.328092	3.326886	-1.145256
O	3.328092	1.145256	-3.326886
Zr	-1.122027	-1.118035	-3.354106
Zr	3.366082	1.118035	-1.118035
Zr	5.610136	-1.118035	-1.118035
Zr	1.122027	1.118035	-3.354106
Co	4.488109	4.472142	0.000000
Co	6.732164	2.236071	-2.236071
O	7.892180	3.381327	-1.090815
O	3.404071	5.562957	-3.381327
O	5.572147	3.381327	-3.381327
O	5.648126	5.617398	-1.145256
O	10.060256	5.562957	-1.090815
O	5.648126	7.799027	-3.326886
O	7.816201	7.799027	-1.145256
O	7.816201	5.617398	-3.326886
Zr	3.366082	3.354106	-3.354106
Zr	7.854191	5.590177	-1.118035
Zr	10.098245	3.354106	-1.118035
Zr	5.610136	5.590177	-3.354106
Co	-4.488109	0.000000	-4.472142
Co	-2.244055	-2.236071	-6.708213
O	-1.084038	-1.090815	-5.562957
O	-5.572147	1.090815	-7.853469
O	-3.404071	-1.090815	-7.853469
O	-3.328092	1.145256	-5.617398
O	1.084038	1.090815	-5.562957
O	-3.328092	3.326886	-7.799027
O	-1.160017	3.326886	-5.617398
O	-1.160017	1.145256	-7.799027
Zr	-5.610136	-1.118035	-7.826248
Zr	-1.122027	1.118035	-5.590177
Zr	1.122027	-1.118035	-5.590177
Zr	-3.366082	1.118035	-7.826248
Co	0.000000	4.472142	-4.472142
Co	2.244055	2.236071	-6.708213
O	3.404071	3.381327	-5.562957
O	-1.084038	5.562957	-7.853469
O	1.084038	3.381327	-7.853469
O	1.160017	5.617398	-5.617398
O	5.572147	5.562957	-5.562957
O	1.160017	7.799027	-7.799027
O	3.328092	7.799027	-5.617398
O	3.328092	5.617398	-7.799027
Zr	-1.122027	3.354106	-7.826248
Zr	3.366082	5.590177	-5.590177
Zr	5.610136	3.354106	-5.590177
Zr	1.122027	5.590177	-7.826248
Co	4.488109	-4.472142	0.000000
Co	6.732164	-6.708213	-2.236071
O	7.892180	-5.562957	-1.090815
O	3.404071	-3.381327	-3.381327
O	5.572147	-5.562957	-3.381327
O	5.648126	-3.326886	-1.145256
O	10.060256	-3.381327	-1.090815
O	5.648126	-1.145256	-3.326886
O	7.816201	-1.145256	-1.145256
O	7.816201	-3.326886	-3.326886
Zr	3.366082	-5.590177	-3.354106
Zr	7.854191	-3.354106	-1.118035
Zr	10.098245	-5.590177	-1.118035
Zr	5.610136	-3.354106	-3.354106
Co	8.976218	0.000000	0.000000
Co	11.220273	-2.236071	-2.236071
O	12.380289	-1.090815	-1.090815
O	7.892180	1.090815	-3.381327
O	10.060256	-1.090815	-3.381327
O	10.136235	1.145256	-1.145256
O	14.548365	1.090815	-1.090815
O	10.136235	3.326886	-3.326886
O	12.304311	3.326886	-1.145256
O	12.304311	1.145256	-3.326886
Zr	7.854191	-1.118035	-3.354106
Zr	12.342300	1.118035	-1.118035
Zr	14.586354	-1.118035	-1.118035
Zr	10.098245	1.118035	-3.354106
Co	0.000000	-4.472142	-4.472142
Co	2.244055	-6.708213	-6.708213
O	3.404071	-5.562957	-5.562957
O	-1.084038	-3.381327	-7.853469
O	1.084038	-5.562957	-7.853469
O	1.160017	-3.326886	-5.617398
O	5.572147	-3.381327	-5.562957
O	1.160017	-1.145256	-7.799027
O	3.328092	-1.145256	-5.617398
O	3.328092	-3.326886	-7.799027
Zr	-1.122027	-5.590177	-7.826248
Zr	3.366082	-3.354106	-5.590177
Zr	5.610136	-5.590177	-5.590177
Zr	1.122027	-3.354106	-7.826248
Co	4.488109	0.000000	-4.472142
Co	6.732164	-2.236071	-6.708213
O	7.892180	-1.090815	-5.562957
O	3.404071	1.090815	-7.853469
O	5.572147	-1.090815	-7.853469
O	5.648126	1.145256	-5.617398
O	10.060256	1.090815	-5.562957
O	5.648126	3.326886	-7.799027
O	7.816201	3.326886	-5.617398
O	7.816201	1.145256	-7.799027
Zr	3.366082	-1.118035	-7.826248
Zr	7.854191	1.118035	-5.590177
Zr	10.098245	-1.118035	-5.590177
Zr	5.610136	1.118035	-7.826248
