40

Bi	2.083876	2.083876	2.083876
Cu	0.000000	0.000000	0.000000
O	0.000000	2.083876	2.083876
O	2.083876	0.000000	2.083876
O	2.083876	2.083876	0.000000
Bi	2.083876	2.083876	6.251627
Cu	0.000000	0.000000	4.167751
O	0.000000	2.083876	6.251627
O	2.083876	0.000000	6.251627
O	2.083876	2.083876	4.167751
Bi	2.083876	6.251627	2.083876
Cu	0.000000	4.167751	0.000000
O	0.000000	6.251627	2.083876
O	2.083876	4.167751	2.083876
O	2.083876	6.251627	0.000000
Bi	2.083876	6.251627	6.251627
Cu	0.000000	4.167751	4.167751
O	0.000000	6.251627	6.251627
O	2.083876	4.167751	6.251627
O	2.083876	6.251627	4.167751
Bi	6.251627	2.083876	2.083876
Cu	4.167751	0.000000	0.000000
O	4.167751	2.083876	2.083876
O	6.251627	0.000000	2.083876
O	6.251627	2.083876	0.000000
Bi	6.251627	2.083876	6.251627
Cu	4.167751	0.000000	4.167751
O	4.167751	2.083876	6.251627
O	6.251627	0.000000	6.251627
O	6.251627	2.083876	4.167751
Bi	6.251627	6.251627	2.083876
Cu	4.167751	4.167751	0.000000
O	4.167751	6.251627	2.083876
O	6.251627	4.167751	2.083876
O	6.251627	6.251627	0.000000
Bi	6.251627	6.251627	6.251627
Cu	4.167751	4.167751	4.167751
O	4.167751	6.251627	6.251627
O	6.251627	4.167751	6.251627
O	6.251627	6.251627	4.167751
