40

Bi	2.063406	2.063406	2.063406
Cu	0.000000	0.000000	0.000000
O	2.063406	2.063406	0.000000
O	2.063406	0.000000	2.063406
O	0.000000	2.063406	2.063406
Bi	2.063406	2.063406	6.190211
Cu	0.000000	0.000000	4.126806
O	2.063406	2.063406	4.126806
O	2.063406	0.000000	6.190211
O	0.000000	2.063406	6.190211
Bi	2.063406	6.190211	2.063406
Cu	0.000000	4.126806	0.000000
O	2.063406	6.190211	0.000000
O	2.063406	4.126806	2.063406
O	0.000000	6.190211	2.063406
Bi	2.063406	6.190211	6.190211
Cu	0.000000	4.126806	4.126806
O	2.063406	6.190211	4.126806
O	2.063406	4.126806	6.190211
O	0.000000	6.190211	6.190211
Bi	6.190211	2.063406	2.063406
Cu	4.126806	0.000000	0.000000
O	6.190211	2.063406	0.000000
O	6.190211	0.000000	2.063406
O	4.126806	2.063406	2.063406
Bi	6.190211	2.063406	6.190211
Cu	4.126806	0.000000	4.126806
O	6.190211	2.063406	4.126806
O	6.190211	0.000000	6.190211
O	4.126806	2.063406	6.190211
Bi	6.190211	6.190211	2.063406
Cu	4.126806	4.126806	0.000000
O	6.190211	6.190211	0.000000
O	6.190211	4.126806	2.063406
O	4.126806	6.190211	2.063406
Bi	6.190211	6.190211	6.190211
Cu	4.126806	4.126806	4.126806
O	6.190211	6.190211	4.126806
O	6.190211	4.126806	6.190211
O	4.126806	6.190211	6.190211
