40

Cu	1.851511	1.851511	1.851511
O	1.851511	1.851511	0.000000
O	1.851511	0.000000	1.851511
O	0.000000	1.851511	1.851511
Ru	0.000000	0.000000	0.000000
Cu	1.851511	1.851511	5.554534
O	1.851511	1.851511	3.703022
O	1.851511	0.000000	5.554534
O	0.000000	1.851511	5.554534
Ru	0.000000	0.000000	3.703022
Cu	1.851511	5.554534	1.851511
O	1.851511	5.554534	0.000000
O	1.851511	3.703022	1.851511
O	0.000000	5.554534	1.851511
Ru	0.000000	3.703022	0.000000
Cu	1.851511	5.554534	5.554534
O	1.851511	5.554534	3.703022
O	1.851511	3.703022	5.554534
O	0.000000	5.554534	5.554534
Ru	0.000000	3.703022	3.703022
Cu	5.554534	1.851511	1.851511
O	5.554534	1.851511	0.000000
O	5.554534	0.000000	1.851511
O	3.703022	1.851511	1.851511
Ru	3.703022	0.000000	0.000000
Cu	5.554534	1.851511	5.554534
O	5.554534	1.851511	3.703022
O	5.554534	0.000000	5.554534
O	3.703022	1.851511	5.554534
Ru	3.703022	0.000000	3.703022
Cu	5.554534	5.554534	1.851511
O	5.554534	5.554534	0.000000
O	5.554534	3.703022	1.851511
O	3.703022	5.554534	1.851511
Ru	3.703022	3.703022	0.000000
Cu	5.554534	5.554534	5.554534
O	5.554534	5.554534	3.703022
O	5.554534	3.703022	5.554534
O	3.703022	5.554534	5.554534
Ru	3.703022	3.703022	3.703022
