40

B	0.000000	0.000000	0.000000
O	0.000000	1.950939	1.950939
O	1.950939	0.000000	1.950939
O	1.950939	1.950939	0.000000
Pt	1.950939	1.950939	1.950939
B	0.000000	0.000000	3.901878
O	0.000000	1.950939	5.852817
O	1.950939	0.000000	5.852817
O	1.950939	1.950939	3.901878
Pt	1.950939	1.950939	5.852817
B	0.000000	3.901878	0.000000
O	0.000000	5.852817	1.950939
O	1.950939	3.901878	1.950939
O	1.950939	5.852817	0.000000
Pt	1.950939	5.852817	1.950939
B	0.000000	3.901878	3.901878
O	0.000000	5.852817	5.852817
O	1.950939	3.901878	5.852817
O	1.950939	5.852817	3.901878
Pt	1.950939	5.852817	5.852817
B	3.901878	0.000000	0.000000
O	3.901878	1.950939	1.950939
O	5.852817	0.000000	1.950939
O	5.852817	1.950939	0.000000
Pt	5.852817	1.950939	1.950939
B	3.901878	0.000000	3.901878
O	3.901878	1.950939	5.852817
O	5.852817	0.000000	5.852817
O	5.852817	1.950939	3.901878
Pt	5.852817	1.950939	5.852817
B	3.901878	3.901878	0.000000
O	3.901878	5.852817	1.950939
O	5.852817	3.901878	1.950939
O	5.852817	5.852817	0.000000
Pt	5.852817	5.852817	1.950939
B	3.901878	3.901878	3.901878
O	3.901878	5.852817	5.852817
O	5.852817	3.901878	5.852817
O	5.852817	5.852817	3.901878
Pt	5.852817	5.852817	5.852817
