40

Ag	0.000000	0.000000	0.000000
K	2.163333	2.163333	2.163333
O	2.163333	2.163333	0.000000
O	2.163333	0.000000	2.163333
O	0.000000	2.163333	2.163333
Ag	0.000000	0.000000	4.326667
K	2.163333	2.163333	6.490000
O	2.163333	2.163333	4.326667
O	2.163333	0.000000	6.490000
O	0.000000	2.163333	6.490000
Ag	0.000000	4.326667	0.000000
K	2.163333	6.490000	2.163333
O	2.163333	6.490000	0.000000
O	2.163333	4.326667	2.163333
O	0.000000	6.490000	2.163333
Ag	0.000000	4.326667	4.326667
K	2.163333	6.490000	6.490000
O	2.163333	6.490000	4.326667
O	2.163333	4.326667	6.490000
O	0.000000	6.490000	6.490000
Ag	4.326667	0.000000	0.000000
K	6.490000	2.163333	2.163333
O	6.490000	2.163333	0.000000
O	6.490000	0.000000	2.163333
O	4.326667	2.163333	2.163333
Ag	4.326667	0.000000	4.326667
K	6.490000	2.163333	6.490000
O	6.490000	2.163333	4.326667
O	6.490000	0.000000	6.490000
O	4.326667	2.163333	6.490000
Ag	4.326667	4.326667	0.000000
K	6.490000	6.490000	2.163333
O	6.490000	6.490000	0.000000
O	6.490000	4.326667	2.163333
O	4.326667	6.490000	2.163333
Ag	4.326667	4.326667	4.326667
K	6.490000	6.490000	6.490000
O	6.490000	6.490000	4.326667
O	6.490000	4.326667	6.490000
O	4.326667	6.490000	6.490000
