40

Ag	2.086003	2.086003	2.086003
K	0.000000	0.000000	0.000000
O	2.086003	2.086003	0.000000
O	2.086003	0.000000	2.086003
O	0.000000	2.086003	2.086003
Ag	2.086003	2.086003	6.258009
K	0.000000	0.000000	4.172006
O	2.086003	2.086003	4.172006
O	2.086003	0.000000	6.258009
O	0.000000	2.086003	6.258009
Ag	2.086003	6.258009	2.086003
K	0.000000	4.172006	0.000000
O	2.086003	6.258009	0.000000
O	2.086003	4.172006	2.086003
O	0.000000	6.258009	2.086003
Ag	2.086003	6.258009	6.258009
K	0.000000	4.172006	4.172006
O	2.086003	6.258009	4.172006
O	2.086003	4.172006	6.258009
O	0.000000	6.258009	6.258009
Ag	6.258009	2.086003	2.086003
K	4.172006	0.000000	0.000000
O	6.258009	2.086003	0.000000
O	6.258009	0.000000	2.086003
O	4.172006	2.086003	2.086003
Ag	6.258009	2.086003	6.258009
K	4.172006	0.000000	4.172006
O	6.258009	2.086003	4.172006
O	6.258009	0.000000	6.258009
O	4.172006	2.086003	6.258009
Ag	6.258009	6.258009	2.086003
K	4.172006	4.172006	0.000000
O	6.258009	6.258009	0.000000
O	6.258009	4.172006	2.086003
O	4.172006	6.258009	2.086003
Ag	6.258009	6.258009	6.258009
K	4.172006	4.172006	4.172006
O	6.258009	6.258009	4.172006
O	6.258009	4.172006	6.258009
O	4.172006	6.258009	6.258009
