40

Ba	2.278197	2.278197	2.278197
O	2.278197	2.278197	0.000000
O	0.000000	2.278197	2.278197
O	2.278197	0.000000	2.278197
W	0.000000	0.000000	0.000000
Ba	2.278197	2.278197	6.834582
O	2.278197	2.278197	4.556385
O	0.000000	2.278197	6.834582
O	2.278197	0.000000	6.834582
W	0.000000	0.000000	4.556385
Ba	2.278197	6.834582	2.278197
O	2.278197	6.834582	0.000000
O	0.000000	6.834582	2.278197
O	2.278197	4.556385	2.278197
W	0.000000	4.556385	0.000000
Ba	2.278197	6.834582	6.834582
O	2.278197	6.834582	4.556385
O	0.000000	6.834582	6.834582
O	2.278197	4.556385	6.834582
W	0.000000	4.556385	4.556385
Ba	6.834582	2.278197	2.278197
O	6.834582	2.278197	0.000000
O	4.556385	2.278197	2.278197
O	6.834582	0.000000	2.278197
W	4.556385	0.000000	0.000000
Ba	6.834582	2.278197	6.834582
O	6.834582	2.278197	4.556385
O	4.556385	2.278197	6.834582
O	6.834582	0.000000	6.834582
W	4.556385	0.000000	4.556385
Ba	6.834582	6.834582	2.278197
O	6.834582	6.834582	0.000000
O	4.556385	6.834582	2.278197
O	6.834582	4.556385	2.278197
W	4.556385	4.556385	0.000000
Ba	6.834582	6.834582	6.834582
O	6.834582	6.834582	4.556385
O	4.556385	6.834582	6.834582
O	6.834582	4.556385	6.834582
W	4.556385	4.556385	4.556385
