40

Ba	2.366873	2.366873	2.366873
O	2.366873	2.366873	0.000000
O	2.366873	0.000000	2.366873
O	0.000000	2.366873	2.366873
W	0.000000	0.000000	0.000000
Ba	2.366873	2.366873	7.100619
O	2.366873	2.366873	4.733746
O	2.366873	0.000000	7.100619
O	0.000000	2.366873	7.100619
W	0.000000	0.000000	4.733746
Ba	2.366873	7.100619	2.366873
O	2.366873	7.100619	0.000000
O	2.366873	4.733746	2.366873
O	0.000000	7.100619	2.366873
W	0.000000	4.733746	0.000000
Ba	2.366873	7.100619	7.100619
O	2.366873	7.100619	4.733746
O	2.366873	4.733746	7.100619
O	0.000000	7.100619	7.100619
W	0.000000	4.733746	4.733746
Ba	7.100619	2.366873	2.366873
O	7.100619	2.366873	0.000000
O	7.100619	0.000000	2.366873
O	4.733746	2.366873	2.366873
W	4.733746	0.000000	0.000000
Ba	7.100619	2.366873	7.100619
O	7.100619	2.366873	4.733746
O	7.100619	0.000000	7.100619
O	4.733746	2.366873	7.100619
W	4.733746	0.000000	4.733746
Ba	7.100619	7.100619	2.366873
O	7.100619	7.100619	0.000000
O	7.100619	4.733746	2.366873
O	4.733746	7.100619	2.366873
W	4.733746	4.733746	0.000000
Ba	7.100619	7.100619	7.100619
O	7.100619	7.100619	4.733746
O	7.100619	4.733746	7.100619
O	4.733746	7.100619	7.100619
W	4.733746	4.733746	4.733746
