40

Ba	2.313709	2.313709	2.313709
O	0.000000	2.313709	2.313709
O	2.313709	0.000000	2.313709
O	2.313709	2.313709	0.000000
W	0.000000	0.000000	0.000000
Ba	2.313709	2.313709	6.941128
O	0.000000	2.313709	6.941128
O	2.313709	0.000000	6.941128
O	2.313709	2.313709	4.627419
W	0.000000	0.000000	4.627419
Ba	2.313709	6.941128	2.313709
O	0.000000	6.941128	2.313709
O	2.313709	4.627419	2.313709
O	2.313709	6.941128	0.000000
W	0.000000	4.627419	0.000000
Ba	2.313709	6.941128	6.941128
O	0.000000	6.941128	6.941128
O	2.313709	4.627419	6.941128
O	2.313709	6.941128	4.627419
W	0.000000	4.627419	4.627419
Ba	6.941128	2.313709	2.313709
O	4.627419	2.313709	2.313709
O	6.941128	0.000000	2.313709
O	6.941128	2.313709	0.000000
W	4.627419	0.000000	0.000000
Ba	6.941128	2.313709	6.941128
O	4.627419	2.313709	6.941128
O	6.941128	0.000000	6.941128
O	6.941128	2.313709	4.627419
W	4.627419	0.000000	4.627419
Ba	6.941128	6.941128	2.313709
O	4.627419	6.941128	2.313709
O	6.941128	4.627419	2.313709
O	6.941128	6.941128	0.000000
W	4.627419	4.627419	0.000000
Ba	6.941128	6.941128	6.941128
O	4.627419	6.941128	6.941128
O	6.941128	4.627419	6.941128
O	6.941128	6.941128	4.627419
W	4.627419	4.627419	4.627419
