40

K	2.099913	2.099913	2.099913
Mg	0.000000	0.000000	0.000000
O	2.099913	2.099913	0.000000
O	2.099913	0.000000	2.099913
O	0.000000	2.099913	2.099913
K	2.099913	2.099913	6.299739
Mg	0.000000	0.000000	4.199827
O	2.099913	2.099913	4.199827
O	2.099913	0.000000	6.299739
O	0.000000	2.099913	6.299739
K	2.099913	6.299739	2.099913
Mg	0.000000	4.199827	0.000000
O	2.099913	6.299739	0.000000
O	2.099913	4.199827	2.099913
O	0.000000	6.299739	2.099913
K	2.099913	6.299739	6.299739
Mg	0.000000	4.199827	4.199827
O	2.099913	6.299739	4.199827
O	2.099913	4.199827	6.299739
O	0.000000	6.299739	6.299739
K	6.299739	2.099913	2.099913
Mg	4.199827	0.000000	0.000000
O	6.299739	2.099913	0.000000
O	6.299739	0.000000	2.099913
O	4.199827	2.099913	2.099913
K	6.299739	2.099913	6.299739
Mg	4.199827	0.000000	4.199827
O	6.299739	2.099913	4.199827
O	6.299739	0.000000	6.299739
O	4.199827	2.099913	6.299739
K	6.299739	6.299739	2.099913
Mg	4.199827	4.199827	0.000000
O	6.299739	6.299739	0.000000
O	6.299739	4.199827	2.099913
O	4.199827	6.299739	2.099913
K	6.299739	6.299739	6.299739
Mg	4.199827	4.199827	4.199827
O	6.299739	6.299739	4.199827
O	6.299739	4.199827	6.299739
O	4.199827	6.299739	6.299739
