40

K	0.000000	0.000000	0.000000
Mg	2.001576	2.001576	2.001576
O	2.001576	2.001576	0.000000
O	2.001576	0.000000	2.001576
O	0.000000	2.001576	2.001576
K	0.000000	0.000000	4.003151
Mg	2.001576	2.001576	6.004727
O	2.001576	2.001576	4.003151
O	2.001576	0.000000	6.004727
O	0.000000	2.001576	6.004727
K	0.000000	4.003151	0.000000
Mg	2.001576	6.004727	2.001576
O	2.001576	6.004727	0.000000
O	2.001576	4.003151	2.001576
O	0.000000	6.004727	2.001576
K	0.000000	4.003151	4.003151
Mg	2.001576	6.004727	6.004727
O	2.001576	6.004727	4.003151
O	2.001576	4.003151	6.004727
O	0.000000	6.004727	6.004727
K	4.003151	0.000000	0.000000
Mg	6.004727	2.001576	2.001576
O	6.004727	2.001576	0.000000
O	6.004727	0.000000	2.001576
O	4.003151	2.001576	2.001576
K	4.003151	0.000000	4.003151
Mg	6.004727	2.001576	6.004727
O	6.004727	2.001576	4.003151
O	6.004727	0.000000	6.004727
O	4.003151	2.001576	6.004727
K	4.003151	4.003151	0.000000
Mg	6.004727	6.004727	2.001576
O	6.004727	6.004727	0.000000
O	6.004727	4.003151	2.001576
O	4.003151	6.004727	2.001576
K	4.003151	4.003151	4.003151
Mg	6.004727	6.004727	6.004727
O	6.004727	6.004727	4.003151
O	6.004727	4.003151	6.004727
O	4.003151	6.004727	6.004727
