112

O	3.784789	-1.190282	-1.190282
O	-1.205631	1.190282	-3.764992
O	1.205631	-1.190282	-3.764992
O	1.289579	1.287355	-1.287355
O	6.196051	1.190282	-1.190282
O	1.289579	3.667919	-3.667919
O	3.700841	3.667919	-1.287355
O	3.700841	1.287355	-3.667919
Pm	0.000000	0.000000	0.000000
Pm	2.495210	-2.477637	-2.477637
Pu	-1.247605	-1.238819	-3.716456
Pu	3.742815	1.238819	-1.238819
Pu	6.238025	-1.238819	-1.238819
Pu	1.247605	1.238819	-3.716456
O	8.775209	3.764992	-1.190282
O	3.784789	6.145556	-3.764992
O	6.196051	3.764992	-3.764992
O	6.279999	6.242629	-1.287355
O	11.186471	6.145556	-1.190282
O	6.279999	8.623193	-3.667919
O	8.691261	8.623193	-1.287355
O	8.691261	6.242629	-3.667919
Pm	4.990420	4.955274	0.000000
Pm	7.485630	2.477637	-2.477637
Pu	3.742815	3.716456	-3.716456
Pu	8.733235	6.194093	-1.238819
Pu	11.228445	3.716456	-1.238819
Pu	6.238025	6.194093	-3.716456
O	-1.205631	-1.190282	-6.145556
O	-6.196051	1.190282	-8.720267
O	-3.784789	-1.190282	-8.720267
O	-3.700841	1.287355	-6.242629
O	1.205631	1.190282	-6.145556
O	-3.700841	3.667919	-8.623193
O	-1.289579	3.667919	-6.242629
O	-1.289579	1.287355	-8.623193
Pm	-4.990420	0.000000	-4.955274
Pm	-2.495210	-2.477637	-7.432911
Pu	-6.238025	-1.238819	-8.671730
Pu	-1.247605	1.238819	-6.194093
Pu	1.247605	-1.238819	-6.194093
Pu	-3.742815	1.238819	-8.671730
O	3.784789	3.764992	-6.145556
O	-1.205631	6.145556	-8.720267
O	1.205631	3.764992	-8.720267
O	1.289579	6.242629	-6.242629
O	6.196051	6.145556	-6.145556
O	1.289579	8.623193	-8.623193
O	3.700841	8.623193	-6.242629
O	3.700841	6.242629	-8.623193
Pm	0.000000	4.955274	-4.955274
Pm	2.495210	2.477637	-7.432911
Pu	-1.247605	3.716456	-8.671730
Pu	3.742815	6.194093	-6.194093
Pu	6.238025	3.716456	-6.194093
Pu	1.247605	6.194093	-8.671730
O	8.775209	-6.145556	-1.190282
O	3.784789	-3.764992	-3.764992
O	6.196051	-6.145556	-3.764992
O	6.279999	-3.667919	-1.287355
O	11.186471	-3.764992	-1.190282
O	6.279999	-1.287355	-3.667919
O	8.691261	-1.287355	-1.287355
O	8.691261	-3.667919	-3.667919
Pm	4.990420	-4.955274	0.000000
Pm	7.485630	-7.432911	-2.477637
Pu	3.742815	-6.194093	-3.716456
Pu	8.733235	-3.716456	-1.238819
Pu	11.228445	-6.194093	-1.238819
Pu	6.238025	-3.716456	-3.716456
O	13.765629	-1.190282	-1.190282
O	8.775209	1.190282	-3.764992
O	11.186471	-1.190282	-3.764992
O	11.270419	1.287355	-1.287355
O	16.176891	1.190282	-1.190282
O	11.270419	3.667919	-3.667919
O	13.681681	3.667919	-1.287355
O	13.681681	1.287355	-3.667919
Pm	9.980840	0.000000	0.000000
Pm	12.476050	-2.477637	-2.477637
Pu	8.733235	-1.238819	-3.716456
Pu	13.723655	1.238819	-1.238819
Pu	16.218865	-1.238819	-1.238819
Pu	11.228445	1.238819	-3.716456
O	3.784789	-6.145556	-6.145556
O	-1.205631	-3.764992	-8.720267
O	1.205631	-6.145556	-8.720267
O	1.289579	-3.667919	-6.242629
O	6.196051	-3.764992	-6.145556
O	1.289579	-1.287355	-8.623193
O	3.700841	-1.287355	-6.242629
O	3.700841	-3.667919	-8.623193
Pm	0.000000	-4.955274	-4.955274
Pm	2.495210	-7.432911	-7.432911
Pu	-1.247605	-6.194093	-8.671730
Pu	3.742815	-3.716456	-6.194093
Pu	6.238025	-6.194093	-6.194093
Pu	1.247605	-3.716456	-8.671730
O	8.775209	-1.190282	-6.145556
O	3.784789	1.190282	-8.720267
O	6.196051	-1.190282	-8.720267
O	6.279999	1.287355	-6.242629
O	11.186471	1.190282	-6.145556
O	6.279999	3.667919	-8.623193
O	8.691261	3.667919	-6.242629
O	8.691261	1.287355	-8.623193
Pm	4.990420	0.000000	-4.955274
Pm	7.485630	-2.477637	-7.432911
Pu	3.742815	-1.238819	-8.671730
Pu	8.733235	1.238819	-6.194093
Pu	11.228445	-1.238819	-6.194093
Pu	6.238025	1.238819	-8.671730
