40

O	2.241470	2.241470	0.000000
O	0.000000	2.241470	2.241470
O	2.241470	0.000000	2.241470
Pt	0.000000	0.000000	0.000000
Th	2.241470	2.241470	2.241470
O	2.241470	2.241470	4.482931
O	0.000000	2.241470	6.724401
O	2.241470	0.000000	6.724401
Pt	0.000000	0.000000	4.482931
Th	2.241470	2.241470	6.724401
O	2.241470	6.724401	0.000000
O	0.000000	6.724401	2.241470
O	2.241470	4.482931	2.241470
Pt	0.000000	4.482931	0.000000
Th	2.241470	6.724401	2.241470
O	2.241470	6.724401	4.482931
O	0.000000	6.724401	6.724401
O	2.241470	4.482931	6.724401
Pt	0.000000	4.482931	4.482931
Th	2.241470	6.724401	6.724401
O	6.724401	2.241470	0.000000
O	4.482931	2.241470	2.241470
O	6.724401	0.000000	2.241470
Pt	4.482931	0.000000	0.000000
Th	6.724401	2.241470	2.241470
O	6.724401	2.241470	4.482931
O	4.482931	2.241470	6.724401
O	6.724401	0.000000	6.724401
Pt	4.482931	0.000000	4.482931
Th	6.724401	2.241470	6.724401
O	6.724401	6.724401	0.000000
O	4.482931	6.724401	2.241470
O	6.724401	4.482931	2.241470
Pt	4.482931	4.482931	0.000000
Th	6.724401	6.724401	2.241470
O	6.724401	6.724401	4.482931
O	4.482931	6.724401	6.724401
O	6.724401	4.482931	6.724401
Pt	4.482931	4.482931	4.482931
Th	6.724401	6.724401	6.724401
