40

O	2.038555	2.038555	0.000000
O	0.000000	2.038555	2.038555
O	2.038555	0.000000	2.038555
Pt	2.038555	2.038555	2.038555
Th	0.000000	0.000000	0.000000
O	2.038555	2.038555	4.077119
O	0.000000	2.038555	6.115674
O	2.038555	0.000000	6.115674
Pt	2.038555	2.038555	6.115674
Th	0.000000	0.000000	4.077119
O	2.038555	6.115674	0.000000
O	0.000000	6.115674	2.038555
O	2.038555	4.077119	2.038555
Pt	2.038555	6.115674	2.038555
Th	0.000000	4.077119	0.000000
O	2.038555	6.115674	4.077119
O	0.000000	6.115674	6.115674
O	2.038555	4.077119	6.115674
Pt	2.038555	6.115674	6.115674
Th	0.000000	4.077119	4.077119
O	6.115674	2.038555	0.000000
O	4.077119	2.038555	2.038555
O	6.115674	0.000000	2.038555
Pt	6.115674	2.038555	2.038555
Th	4.077119	0.000000	0.000000
O	6.115674	2.038555	4.077119
O	4.077119	2.038555	6.115674
O	6.115674	0.000000	6.115674
Pt	6.115674	2.038555	6.115674
Th	4.077119	0.000000	4.077119
O	6.115674	6.115674	0.000000
O	4.077119	6.115674	2.038555
O	6.115674	4.077119	2.038555
Pt	6.115674	6.115674	2.038555
Th	4.077119	4.077119	0.000000
O	6.115674	6.115674	4.077119
O	4.077119	6.115674	6.115674
O	6.115674	4.077119	6.115674
Pt	6.115674	6.115674	6.115674
Th	4.077119	4.077119	4.077119
