40

O	2.057106	2.057106	0.000000
O	2.057106	0.000000	2.057106
O	0.000000	2.057106	2.057106
Pt	2.057106	2.057106	2.057106
Th	0.000000	0.000000	0.000000
O	2.057106	2.057106	4.114212
O	2.057106	0.000000	6.171318
O	0.000000	2.057106	6.171318
Pt	2.057106	2.057106	6.171318
Th	0.000000	0.000000	4.114212
O	2.057106	6.171318	0.000000
O	2.057106	4.114212	2.057106
O	0.000000	6.171318	2.057106
Pt	2.057106	6.171318	2.057106
Th	0.000000	4.114212	0.000000
O	2.057106	6.171318	4.114212
O	2.057106	4.114212	6.171318
O	0.000000	6.171318	6.171318
Pt	2.057106	6.171318	6.171318
Th	0.000000	4.114212	4.114212
O	6.171318	2.057106	0.000000
O	6.171318	0.000000	2.057106
O	4.114212	2.057106	2.057106
Pt	6.171318	2.057106	2.057106
Th	4.114212	0.000000	0.000000
O	6.171318	2.057106	4.114212
O	6.171318	0.000000	6.171318
O	4.114212	2.057106	6.171318
Pt	6.171318	2.057106	6.171318
Th	4.114212	0.000000	4.114212
O	6.171318	6.171318	0.000000
O	6.171318	4.114212	2.057106
O	4.114212	6.171318	2.057106
Pt	6.171318	6.171318	2.057106
Th	4.114212	4.114212	0.000000
O	6.171318	6.171318	4.114212
O	6.171318	4.114212	6.171318
O	4.114212	6.171318	6.171318
Pt	6.171318	6.171318	6.171318
Th	4.114212	4.114212	4.114212
