40

Cl	1.903986	1.903986	1.903986
Cu	0.000000	0.000000	0.000000
O	0.000000	1.903986	1.903986
O	1.903986	0.000000	1.903986
O	1.903986	1.903986	0.000000
Cl	1.903986	1.903986	5.711959
Cu	0.000000	0.000000	3.807973
O	0.000000	1.903986	5.711959
O	1.903986	0.000000	5.711959
O	1.903986	1.903986	3.807973
Cl	1.903986	5.711959	1.903986
Cu	0.000000	3.807973	0.000000
O	0.000000	5.711959	1.903986
O	1.903986	3.807973	1.903986
O	1.903986	5.711959	0.000000
Cl	1.903986	5.711959	5.711959
Cu	0.000000	3.807973	3.807973
O	0.000000	5.711959	5.711959
O	1.903986	3.807973	5.711959
O	1.903986	5.711959	3.807973
Cl	5.711959	1.903986	1.903986
Cu	3.807973	0.000000	0.000000
O	3.807973	1.903986	1.903986
O	5.711959	0.000000	1.903986
O	5.711959	1.903986	0.000000
Cl	5.711959	1.903986	5.711959
Cu	3.807973	0.000000	3.807973
O	3.807973	1.903986	5.711959
O	5.711959	0.000000	5.711959
O	5.711959	1.903986	3.807973
Cl	5.711959	5.711959	1.903986
Cu	3.807973	3.807973	0.000000
O	3.807973	5.711959	1.903986
O	5.711959	3.807973	1.903986
O	5.711959	5.711959	0.000000
Cl	5.711959	5.711959	5.711959
Cu	3.807973	3.807973	3.807973
O	3.807973	5.711959	5.711959
O	5.711959	3.807973	5.711959
O	5.711959	5.711959	3.807973
