40

Au	0.000000	0.000000	0.000000
F	1.934288	1.934288	1.934288
O	0.000000	1.934288	1.934288
O	1.934288	0.000000	1.934288
O	1.934288	1.934288	0.000000
Au	0.000000	0.000000	3.868576
F	1.934288	1.934288	5.802864
O	0.000000	1.934288	5.802864
O	1.934288	0.000000	5.802864
O	1.934288	1.934288	3.868576
Au	0.000000	3.868576	0.000000
F	1.934288	5.802864	1.934288
O	0.000000	5.802864	1.934288
O	1.934288	3.868576	1.934288
O	1.934288	5.802864	0.000000
Au	0.000000	3.868576	3.868576
F	1.934288	5.802864	5.802864
O	0.000000	5.802864	5.802864
O	1.934288	3.868576	5.802864
O	1.934288	5.802864	3.868576
Au	3.868576	0.000000	0.000000
F	5.802864	1.934288	1.934288
O	3.868576	1.934288	1.934288
O	5.802864	0.000000	1.934288
O	5.802864	1.934288	0.000000
Au	3.868576	0.000000	3.868576
F	5.802864	1.934288	5.802864
O	3.868576	1.934288	5.802864
O	5.802864	0.000000	5.802864
O	5.802864	1.934288	3.868576
Au	3.868576	3.868576	0.000000
F	5.802864	5.802864	1.934288
O	3.868576	5.802864	1.934288
O	5.802864	3.868576	1.934288
O	5.802864	5.802864	0.000000
Au	3.868576	3.868576	3.868576
F	5.802864	5.802864	5.802864
O	3.868576	5.802864	5.802864
O	5.802864	3.868576	5.802864
O	5.802864	5.802864	3.868576
