40

B	0.000000	0.000000	0.000000
Mn	1.869694	1.869694	1.869694
O	0.000000	1.869694	1.869694
O	1.869694	0.000000	1.869694
O	1.869694	1.869694	0.000000
B	0.000000	0.000000	3.739388
Mn	1.869694	1.869694	5.609082
O	0.000000	1.869694	5.609082
O	1.869694	0.000000	5.609082
O	1.869694	1.869694	3.739388
B	0.000000	3.739388	0.000000
Mn	1.869694	5.609082	1.869694
O	0.000000	5.609082	1.869694
O	1.869694	3.739388	1.869694
O	1.869694	5.609082	0.000000
B	0.000000	3.739388	3.739388
Mn	1.869694	5.609082	5.609082
O	0.000000	5.609082	5.609082
O	1.869694	3.739388	5.609082
O	1.869694	5.609082	3.739388
B	3.739388	0.000000	0.000000
Mn	5.609082	1.869694	1.869694
O	3.739388	1.869694	1.869694
O	5.609082	0.000000	1.869694
O	5.609082	1.869694	0.000000
B	3.739388	0.000000	3.739388
Mn	5.609082	1.869694	5.609082
O	3.739388	1.869694	5.609082
O	5.609082	0.000000	5.609082
O	5.609082	1.869694	3.739388
B	3.739388	3.739388	0.000000
Mn	5.609082	5.609082	1.869694
O	3.739388	5.609082	1.869694
O	5.609082	3.739388	1.869694
O	5.609082	5.609082	0.000000
B	3.739388	3.739388	3.739388
Mn	5.609082	5.609082	5.609082
O	3.739388	5.609082	5.609082
O	5.609082	3.739388	5.609082
O	5.609082	5.609082	3.739388
