40

B	1.680860	1.680860	1.680860
Mn	0.000000	0.000000	0.000000
O	1.680860	1.680860	0.000000
O	0.000000	1.680860	1.680860
O	1.680860	0.000000	1.680860
B	1.680860	1.680860	5.042590
Mn	0.000000	0.000000	3.361730
O	1.680860	1.680860	3.361730
O	0.000000	1.680860	5.042590
O	1.680860	0.000000	5.042590
B	1.680860	5.042590	1.680860
Mn	0.000000	3.361730	0.000000
O	1.680860	5.042590	0.000000
O	0.000000	5.042590	1.680860
O	1.680860	3.361730	1.680860
B	1.680860	5.042590	5.042590
Mn	0.000000	3.361730	3.361730
O	1.680860	5.042590	3.361730
O	0.000000	5.042590	5.042590
O	1.680860	3.361730	5.042590
B	5.042590	1.680860	1.680860
Mn	3.361730	0.000000	0.000000
O	5.042590	1.680860	0.000000
O	3.361730	1.680860	1.680860
O	5.042590	0.000000	1.680860
B	5.042590	1.680860	5.042590
Mn	3.361730	0.000000	3.361730
O	5.042590	1.680860	3.361730
O	3.361730	1.680860	5.042590
O	5.042590	0.000000	5.042590
B	5.042590	5.042590	1.680860
Mn	3.361730	3.361730	0.000000
O	5.042590	5.042590	0.000000
O	3.361730	5.042590	1.680860
O	5.042590	3.361730	1.680860
B	5.042590	5.042590	5.042590
Mn	3.361730	3.361730	3.361730
O	5.042590	5.042590	3.361730
O	3.361730	5.042590	5.042590
O	5.042590	3.361730	5.042590
