40

Fe	0.000000	0.000000	0.000000
O	0.000000	1.859309	1.859309
O	1.859309	0.000000	1.859309
O	1.859309	1.859309	0.000000
Zn	1.859309	1.859309	1.859309
Fe	0.000000	0.000000	3.718617
O	0.000000	1.859309	5.577926
O	1.859309	0.000000	5.577926
O	1.859309	1.859309	3.718617
Zn	1.859309	1.859309	5.577926
Fe	0.000000	3.718617	0.000000
O	0.000000	5.577926	1.859309
O	1.859309	3.718617	1.859309
O	1.859309	5.577926	0.000000
Zn	1.859309	5.577926	1.859309
Fe	0.000000	3.718617	3.718617
O	0.000000	5.577926	5.577926
O	1.859309	3.718617	5.577926
O	1.859309	5.577926	3.718617
Zn	1.859309	5.577926	5.577926
Fe	3.718617	0.000000	0.000000
O	3.718617	1.859309	1.859309
O	5.577926	0.000000	1.859309
O	5.577926	1.859309	0.000000
Zn	5.577926	1.859309	1.859309
Fe	3.718617	0.000000	3.718617
O	3.718617	1.859309	5.577926
O	5.577926	0.000000	5.577926
O	5.577926	1.859309	3.718617
Zn	5.577926	1.859309	5.577926
Fe	3.718617	3.718617	0.000000
O	3.718617	5.577926	1.859309
O	5.577926	3.718617	1.859309
O	5.577926	5.577926	0.000000
Zn	5.577926	5.577926	1.859309
Fe	3.718617	3.718617	3.718617
O	3.718617	5.577926	5.577926
O	5.577926	3.718617	5.577926
O	5.577926	5.577926	3.718617
Zn	5.577926	5.577926	5.577926
