40

In	2.057221	2.057221	2.057221
O	0.000000	2.057221	2.057221
O	2.057221	0.000000	2.057221
O	2.057221	2.057221	0.000000
Si	0.000000	0.000000	0.000000
In	2.057221	2.057221	6.171663
O	0.000000	2.057221	6.171663
O	2.057221	0.000000	6.171663
O	2.057221	2.057221	4.114442
Si	0.000000	0.000000	4.114442
In	2.057221	6.171663	2.057221
O	0.000000	6.171663	2.057221
O	2.057221	4.114442	2.057221
O	2.057221	6.171663	0.000000
Si	0.000000	4.114442	0.000000
In	2.057221	6.171663	6.171663
O	0.000000	6.171663	6.171663
O	2.057221	4.114442	6.171663
O	2.057221	6.171663	4.114442
Si	0.000000	4.114442	4.114442
In	6.171663	2.057221	2.057221
O	4.114442	2.057221	2.057221
O	6.171663	0.000000	2.057221
O	6.171663	2.057221	0.000000
Si	4.114442	0.000000	0.000000
In	6.171663	2.057221	6.171663
O	4.114442	2.057221	6.171663
O	6.171663	0.000000	6.171663
O	6.171663	2.057221	4.114442
Si	4.114442	0.000000	4.114442
In	6.171663	6.171663	2.057221
O	4.114442	6.171663	2.057221
O	6.171663	4.114442	2.057221
O	6.171663	6.171663	0.000000
Si	4.114442	4.114442	0.000000
In	6.171663	6.171663	6.171663
O	4.114442	6.171663	6.171663
O	6.171663	4.114442	6.171663
O	6.171663	6.171663	4.114442
Si	4.114442	4.114442	4.114442
