40

O	2.036328	0.000000	0.000000
O	0.000000	2.036328	0.000000
O	0.000000	0.000000	2.036328
Sn	0.000000	0.000000	0.000000
Sr	2.036328	2.036328	2.036328
O	2.036328	0.000000	4.072655
O	0.000000	2.036328	4.072655
O	0.000000	0.000000	6.108983
Sn	0.000000	0.000000	4.072655
Sr	2.036328	2.036328	6.108983
O	2.036328	4.072655	0.000000
O	0.000000	6.108983	0.000000
O	0.000000	4.072655	2.036328
Sn	0.000000	4.072655	0.000000
Sr	2.036328	6.108983	2.036328
O	2.036328	4.072655	4.072655
O	0.000000	6.108983	4.072655
O	0.000000	4.072655	6.108983
Sn	0.000000	4.072655	4.072655
Sr	2.036328	6.108983	6.108983
O	6.108983	0.000000	0.000000
O	4.072655	2.036328	0.000000
O	4.072655	0.000000	2.036328
Sn	4.072655	0.000000	0.000000
Sr	6.108983	2.036328	2.036328
O	6.108983	0.000000	4.072655
O	4.072655	2.036328	4.072655
O	4.072655	0.000000	6.108983
Sn	4.072655	0.000000	4.072655
Sr	6.108983	2.036328	6.108983
O	6.108983	4.072655	0.000000
O	4.072655	6.108983	0.000000
O	4.072655	4.072655	2.036328
Sn	4.072655	4.072655	0.000000
Sr	6.108983	6.108983	2.036328
O	6.108983	4.072655	4.072655
O	4.072655	6.108983	4.072655
O	4.072655	4.072655	6.108983
Sn	4.072655	4.072655	4.072655
Sr	6.108983	6.108983	6.108983
