40

B	0.000000	0.000000	0.000000
Cd	2.117323	2.117323	2.117323
O	0.000000	2.117323	2.117323
O	2.117323	0.000000	2.117323
O	2.117323	2.117323	0.000000
B	0.000000	0.000000	4.234646
Cd	2.117323	2.117323	6.351968
O	0.000000	2.117323	6.351968
O	2.117323	0.000000	6.351968
O	2.117323	2.117323	4.234646
B	0.000000	4.234646	0.000000
Cd	2.117323	6.351968	2.117323
O	0.000000	6.351968	2.117323
O	2.117323	4.234646	2.117323
O	2.117323	6.351968	0.000000
B	0.000000	4.234646	4.234646
Cd	2.117323	6.351968	6.351968
O	0.000000	6.351968	6.351968
O	2.117323	4.234646	6.351968
O	2.117323	6.351968	4.234646
B	4.234646	0.000000	0.000000
Cd	6.351968	2.117323	2.117323
O	4.234646	2.117323	2.117323
O	6.351968	0.000000	2.117323
O	6.351968	2.117323	0.000000
B	4.234646	0.000000	4.234646
Cd	6.351968	2.117323	6.351968
O	4.234646	2.117323	6.351968
O	6.351968	0.000000	6.351968
O	6.351968	2.117323	4.234646
B	4.234646	4.234646	0.000000
Cd	6.351968	6.351968	2.117323
O	4.234646	6.351968	2.117323
O	6.351968	4.234646	2.117323
O	6.351968	6.351968	0.000000
B	4.234646	4.234646	4.234646
Cd	6.351968	6.351968	6.351968
O	4.234646	6.351968	6.351968
O	6.351968	4.234646	6.351968
O	6.351968	6.351968	4.234646
