40

As	0.000000	0.000000	0.000000
B	1.703429	1.703429	1.703429
O	1.703429	1.703429	0.000000
O	1.703429	0.000000	1.703429
O	0.000000	1.703429	1.703429
As	0.000000	0.000000	3.406857
B	1.703429	1.703429	5.110286
O	1.703429	1.703429	3.406857
O	1.703429	0.000000	5.110286
O	0.000000	1.703429	5.110286
As	0.000000	3.406857	0.000000
B	1.703429	5.110286	1.703429
O	1.703429	5.110286	0.000000
O	1.703429	3.406857	1.703429
O	0.000000	5.110286	1.703429
As	0.000000	3.406857	3.406857
B	1.703429	5.110286	5.110286
O	1.703429	5.110286	3.406857
O	1.703429	3.406857	5.110286
O	0.000000	5.110286	5.110286
As	3.406857	0.000000	0.000000
B	5.110286	1.703429	1.703429
O	5.110286	1.703429	0.000000
O	5.110286	0.000000	1.703429
O	3.406857	1.703429	1.703429
As	3.406857	0.000000	3.406857
B	5.110286	1.703429	5.110286
O	5.110286	1.703429	3.406857
O	5.110286	0.000000	5.110286
O	3.406857	1.703429	5.110286
As	3.406857	3.406857	0.000000
B	5.110286	5.110286	1.703429
O	5.110286	5.110286	0.000000
O	5.110286	3.406857	1.703429
O	3.406857	5.110286	1.703429
As	3.406857	3.406857	3.406857
B	5.110286	5.110286	5.110286
O	5.110286	5.110286	3.406857
O	5.110286	3.406857	5.110286
O	3.406857	5.110286	5.110286
