40

Gd	2.197191	2.197191	2.197191
O	2.197191	2.197191	0.000000
O	2.197191	0.000000	2.197191
O	0.000000	2.197191	2.197191
Th	0.000000	0.000000	0.000000
Gd	2.197191	2.197191	6.591572
O	2.197191	2.197191	4.394382
O	2.197191	0.000000	6.591572
O	0.000000	2.197191	6.591572
Th	0.000000	0.000000	4.394382
Gd	2.197191	6.591572	2.197191
O	2.197191	6.591572	0.000000
O	2.197191	4.394382	2.197191
O	0.000000	6.591572	2.197191
Th	0.000000	4.394382	0.000000
Gd	2.197191	6.591572	6.591572
O	2.197191	6.591572	4.394382
O	2.197191	4.394382	6.591572
O	0.000000	6.591572	6.591572
Th	0.000000	4.394382	4.394382
Gd	6.591572	2.197191	2.197191
O	6.591572	2.197191	0.000000
O	6.591572	0.000000	2.197191
O	4.394382	2.197191	2.197191
Th	4.394382	0.000000	0.000000
Gd	6.591572	2.197191	6.591572
O	6.591572	2.197191	4.394382
O	6.591572	0.000000	6.591572
O	4.394382	2.197191	6.591572
Th	4.394382	0.000000	4.394382
Gd	6.591572	6.591572	2.197191
O	6.591572	6.591572	0.000000
O	6.591572	4.394382	2.197191
O	4.394382	6.591572	2.197191
Th	4.394382	4.394382	0.000000
Gd	6.591572	6.591572	6.591572
O	6.591572	6.591572	4.394382
O	6.591572	4.394382	6.591572
O	4.394382	6.591572	6.591572
Th	4.394382	4.394382	4.394382
