40

Gd	2.162625	2.162625	2.162625
O	2.162625	2.162625	0.000000
O	0.000000	2.162625	2.162625
O	2.162625	0.000000	2.162625
Th	0.000000	0.000000	0.000000
Gd	2.162625	2.162625	6.487857
O	2.162625	2.162625	4.325232
O	0.000000	2.162625	6.487857
O	2.162625	0.000000	6.487857
Th	0.000000	0.000000	4.325232
Gd	2.162625	6.487857	2.162625
O	2.162625	6.487857	0.000000
O	0.000000	6.487857	2.162625
O	2.162625	4.325232	2.162625
Th	0.000000	4.325232	0.000000
Gd	2.162625	6.487857	6.487857
O	2.162625	6.487857	4.325232
O	0.000000	6.487857	6.487857
O	2.162625	4.325232	6.487857
Th	0.000000	4.325232	4.325232
Gd	6.487857	2.162625	2.162625
O	6.487857	2.162625	0.000000
O	4.325232	2.162625	2.162625
O	6.487857	0.000000	2.162625
Th	4.325232	0.000000	0.000000
Gd	6.487857	2.162625	6.487857
O	6.487857	2.162625	4.325232
O	4.325232	2.162625	6.487857
O	6.487857	0.000000	6.487857
Th	4.325232	0.000000	4.325232
Gd	6.487857	6.487857	2.162625
O	6.487857	6.487857	0.000000
O	4.325232	6.487857	2.162625
O	6.487857	4.325232	2.162625
Th	4.325232	4.325232	0.000000
Gd	6.487857	6.487857	6.487857
O	6.487857	6.487857	4.325232
O	4.325232	6.487857	6.487857
O	6.487857	4.325232	6.487857
Th	4.325232	4.325232	4.325232
