40

Ge	1.927200	1.927200	1.927200
O	0.000000	1.927200	1.927200
O	1.927200	0.000000	1.927200
O	1.927200	1.927200	0.000000
Zr	0.000000	0.000000	0.000000
Ge	1.927200	1.927200	5.781599
O	0.000000	1.927200	5.781599
O	1.927200	0.000000	5.781599
O	1.927200	1.927200	3.854399
Zr	0.000000	0.000000	3.854399
Ge	1.927200	5.781599	1.927200
O	0.000000	5.781599	1.927200
O	1.927200	3.854399	1.927200
O	1.927200	5.781599	0.000000
Zr	0.000000	3.854399	0.000000
Ge	1.927200	5.781599	5.781599
O	0.000000	5.781599	5.781599
O	1.927200	3.854399	5.781599
O	1.927200	5.781599	3.854399
Zr	0.000000	3.854399	3.854399
Ge	5.781599	1.927200	1.927200
O	3.854399	1.927200	1.927200
O	5.781599	0.000000	1.927200
O	5.781599	1.927200	0.000000
Zr	3.854399	0.000000	0.000000
Ge	5.781599	1.927200	5.781599
O	3.854399	1.927200	5.781599
O	5.781599	0.000000	5.781599
O	5.781599	1.927200	3.854399
Zr	3.854399	0.000000	3.854399
Ge	5.781599	5.781599	1.927200
O	3.854399	5.781599	1.927200
O	5.781599	3.854399	1.927200
O	5.781599	5.781599	0.000000
Zr	3.854399	3.854399	0.000000
Ge	5.781599	5.781599	5.781599
O	3.854399	5.781599	5.781599
O	5.781599	3.854399	5.781599
O	5.781599	5.781599	3.854399
Zr	3.854399	3.854399	3.854399
