40

Ni	0.000000	0.000000	0.000000
O	1.887499	1.887499	0.000000
O	1.887499	0.000000	1.887499
O	0.000000	1.887499	1.887499
Zn	1.887499	1.887499	1.887499
Ni	0.000000	0.000000	3.774991
O	1.887499	1.887499	3.774991
O	1.887499	0.000000	5.662490
O	0.000000	1.887499	5.662490
Zn	1.887499	1.887499	5.662490
Ni	0.000000	3.774991	0.000000
O	1.887499	5.662490	0.000000
O	1.887499	3.774991	1.887499
O	0.000000	5.662490	1.887499
Zn	1.887499	5.662490	1.887499
Ni	0.000000	3.774991	3.774991
O	1.887499	5.662490	3.774991
O	1.887499	3.774991	5.662490
O	0.000000	5.662490	5.662490
Zn	1.887499	5.662490	5.662490
Ni	3.774991	0.000000	0.000000
O	5.662490	1.887499	0.000000
O	5.662490	0.000000	1.887499
O	3.774991	1.887499	1.887499
Zn	5.662490	1.887499	1.887499
Ni	3.774991	0.000000	3.774991
O	5.662490	1.887499	3.774991
O	5.662490	0.000000	5.662490
O	3.774991	1.887499	5.662490
Zn	5.662490	1.887499	5.662490
Ni	3.774991	3.774991	0.000000
O	5.662490	5.662490	0.000000
O	5.662490	3.774991	1.887499
O	3.774991	5.662490	1.887499
Zn	5.662490	5.662490	1.887499
Ni	3.774991	3.774991	3.774991
O	5.662490	5.662490	3.774991
O	5.662490	3.774991	5.662490
O	3.774991	5.662490	5.662490
Zn	5.662490	5.662490	5.662490
