40

Ni	0.000000	0.000000	0.000000
O	0.000000	1.879265	1.879265
O	1.879265	0.000000	1.879265
O	1.879265	1.879265	0.000000
Zn	1.879265	1.879265	1.879265
Ni	0.000000	0.000000	3.758530
O	0.000000	1.879265	5.637795
O	1.879265	0.000000	5.637795
O	1.879265	1.879265	3.758530
Zn	1.879265	1.879265	5.637795
Ni	0.000000	3.758530	0.000000
O	0.000000	5.637795	1.879265
O	1.879265	3.758530	1.879265
O	1.879265	5.637795	0.000000
Zn	1.879265	5.637795	1.879265
Ni	0.000000	3.758530	3.758530
O	0.000000	5.637795	5.637795
O	1.879265	3.758530	5.637795
O	1.879265	5.637795	3.758530
Zn	1.879265	5.637795	5.637795
Ni	3.758530	0.000000	0.000000
O	3.758530	1.879265	1.879265
O	5.637795	0.000000	1.879265
O	5.637795	1.879265	0.000000
Zn	5.637795	1.879265	1.879265
Ni	3.758530	0.000000	3.758530
O	3.758530	1.879265	5.637795
O	5.637795	0.000000	5.637795
O	5.637795	1.879265	3.758530
Zn	5.637795	1.879265	5.637795
Ni	3.758530	3.758530	0.000000
O	3.758530	5.637795	1.879265
O	5.637795	3.758530	1.879265
O	5.637795	5.637795	0.000000
Zn	5.637795	5.637795	1.879265
Ni	3.758530	3.758530	3.758530
O	3.758530	5.637795	5.637795
O	5.637795	3.758530	5.637795
O	5.637795	5.637795	3.758530
Zn	5.637795	5.637795	5.637795
