440

Li	2.259739	2.298274	2.298274
Li	4.558013	0.000000	4.558013
Li	2.259739	6.817752	6.817752
Li	4.558013	4.558013	0.000000
Li	6.856286	2.298274	6.817752
Li	0.000000	0.000000	0.000000
Li	6.856286	6.817752	2.298274
In	1.149579	8.010780	3.408434
In	3.422678	1.135335	7.980691
In	3.452767	3.408434	5.707592
In	1.149579	1.105245	5.707592
In	1.149579	3.408434	8.010780
In	3.452767	5.707592	3.408434
In	3.422678	7.980691	1.135335
In	1.149579	5.707592	1.105245
In	5.693347	7.980691	7.980691
In	7.966446	1.105245	3.408434
In	7.966446	3.408434	1.105245
In	5.693347	1.135335	1.135335
In	5.663258	3.408434	3.408434
In	7.966446	5.707592	8.010780
In	7.966446	8.010780	5.707592
In	5.663258	5.707592	5.707592
O	3.498098	1.059915	1.059915
O	5.620367	3.505644	5.610381
O	5.617928	1.059915	8.056110
O	3.495658	3.505644	3.505644
O	3.354105	1.203907	5.787806
O	1.229793	7.912118	1.203907
O	1.229793	1.203907	7.912118
O	3.354105	7.912118	3.328220
O	3.495658	5.610381	5.610381
O	5.617928	8.056110	1.059915
O	5.620367	5.610381	3.505644
O	3.498098	8.056110	8.056110
O	3.354105	5.787806	1.203907
O	1.297489	3.260523	5.855502
O	1.297489	5.855502	3.260523
O	3.354105	3.328220	7.912118
O	8.063657	1.062355	5.610381
O	1.052368	3.505644	1.062355
O	1.052368	1.062355	3.505644
O	8.063657	3.505644	8.053671
O	7.886233	1.203907	1.203907
O	5.761920	7.912118	5.787806
O	5.761920	1.203907	3.328220
O	7.886233	7.912118	7.912118
O	8.063657	5.610381	1.062355
O	1.052368	8.053671	5.610381
O	1.052368	5.610381	8.053671
O	8.063657	8.053671	3.505644
O	7.818536	5.855502	5.855502
O	5.761920	3.328220	1.203907
O	5.761920	5.787806	7.912118
O	7.818536	3.260523	3.260523
Li	2.259739	2.298274	11.414299
Li	4.558013	0.000000	13.674038
Li	2.259739	6.817752	15.933777
Li	4.558013	4.558013	9.116025
Li	6.856286	2.298274	15.933777
Li	0.000000	0.000000	9.116025
Li	6.856286	6.817752	11.414299
In	1.149579	8.010780	12.524459
In	3.422678	1.135335	17.096716
In	3.452767	3.408434	14.823617
In	1.149579	1.105245	14.823617
In	1.149579	3.408434	17.126805
In	3.452767	5.707592	12.524459
In	3.422678	7.980691	10.251360
In	1.149579	5.707592	10.221271
In	5.693347	7.980691	17.096716
In	7.966446	1.105245	12.524459
In	7.966446	3.408434	10.221271
In	5.693347	1.135335	10.251360
In	5.663258	3.408434	12.524459
In	7.966446	5.707592	17.126805
In	7.966446	8.010780	14.823617
In	5.663258	5.707592	14.823617
O	3.498098	1.059915	10.175940
O	5.620367	3.505644	14.726406
O	5.617928	1.059915	17.172136
O	3.495658	3.505644	12.621670
O	3.354105	1.203907	14.903831
O	1.229793	7.912118	10.319933
O	1.229793	1.203907	17.028144
O	3.354105	7.912118	12.444245
O	3.495658	5.610381	14.726406
O	5.617928	8.056110	10.175940
O	5.620367	5.610381	12.621670
O	3.498098	8.056110	17.172136
O	3.354105	5.787806	10.319933
O	1.297489	3.260523	14.971527
O	1.297489	5.855502	12.376549
O	3.354105	3.328220	17.028144
O	8.063657	1.062355	14.726406
O	1.052368	3.505644	10.178380
O	1.052368	1.062355	12.621670
O	8.063657	3.505644	17.169696
O	7.886233	1.203907	10.319933
O	5.761920	7.912118	14.903831
O	5.761920	1.203907	12.444245
O	7.886233	7.912118	17.028144
O	8.063657	5.610381	10.178380
O	1.052368	8.053671	14.726406
O	1.052368	5.610381	17.169696
O	8.063657	8.053671	12.621670
O	7.818536	5.855502	14.971527
O	5.761920	3.328220	10.319933
O	5.761920	5.787806	17.028144
O	7.818536	3.260523	12.376549
Li	2.259739	11.414299	2.298274
Li	4.558013	9.116025	4.558013
Li	2.259739	15.933777	6.817752
Li	4.558013	13.674038	0.000000
Li	6.856286	11.414299	6.817752
Li	0.000000	9.116025	0.000000
Li	6.856286	15.933777	2.298274
In	1.149579	17.126805	3.408434
In	3.422678	10.251360	7.980691
In	3.452767	12.524459	5.707592
In	1.149579	10.221271	5.707592
In	1.149579	12.524459	8.010780
In	3.452767	14.823617	3.408434
In	3.422678	17.096716	1.135335
In	1.149579	14.823617	1.105245
In	5.693347	17.096716	7.980691
In	7.966446	10.221271	3.408434
In	7.966446	12.524459	1.105245
In	5.693347	10.251360	1.135335
In	5.663258	12.524459	3.408434
In	7.966446	14.823617	8.010780
In	7.966446	17.126805	5.707592
In	5.663258	14.823617	5.707592
O	3.498098	10.175940	1.059915
O	5.620367	12.621670	5.610381
O	5.617928	10.175940	8.056110
O	3.495658	12.621670	3.505644
O	3.354105	10.319933	5.787806
O	1.229793	17.028144	1.203907
O	1.229793	10.319933	7.912118
O	3.354105	17.028144	3.328220
O	3.495658	14.726406	5.610381
O	5.617928	17.172136	1.059915
O	5.620367	14.726406	3.505644
O	3.498098	17.172136	8.056110
O	3.354105	14.903831	1.203907
O	1.297489	12.376549	5.855502
O	1.297489	14.971527	3.260523
O	3.354105	12.444245	7.912118
O	8.063657	10.178380	5.610381
O	1.052368	12.621670	1.062355
O	1.052368	10.178380	3.505644
O	8.063657	12.621670	8.053671
O	7.886233	10.319933	1.203907
O	5.761920	17.028144	5.787806
O	5.761920	10.319933	3.328220
O	7.886233	17.028144	7.912118
O	8.063657	14.726406	1.062355
O	1.052368	17.169696	5.610381
O	1.052368	14.726406	8.053671
O	8.063657	17.169696	3.505644
O	7.818536	14.971527	5.855502
O	5.761920	12.444245	1.203907
O	5.761920	14.903831	7.912118
O	7.818536	12.376549	3.260523
Li	2.259739	11.414299	11.414299
Li	4.558013	9.116025	13.674038
Li	2.259739	15.933777	15.933777
Li	4.558013	13.674038	9.116025
Li	6.856286	11.414299	15.933777
Li	0.000000	9.116025	9.116025
Li	6.856286	15.933777	11.414299
In	1.149579	17.126805	12.524459
In	3.422678	10.251360	17.096716
In	3.452767	12.524459	14.823617
In	1.149579	10.221271	14.823617
In	1.149579	12.524459	17.126805
In	3.452767	14.823617	12.524459
In	3.422678	17.096716	10.251360
In	1.149579	14.823617	10.221271
In	5.693347	17.096716	17.096716
In	7.966446	10.221271	12.524459
In	7.966446	12.524459	10.221271
In	5.693347	10.251360	10.251360
In	5.663258	12.524459	12.524459
In	7.966446	14.823617	17.126805
In	7.966446	17.126805	14.823617
In	5.663258	14.823617	14.823617
O	3.498098	10.175940	10.175940
O	5.620367	12.621670	14.726406
O	5.617928	10.175940	17.172136
O	3.495658	12.621670	12.621670
O	3.354105	10.319933	14.903831
O	1.229793	17.028144	10.319933
O	1.229793	10.319933	17.028144
O	3.354105	17.028144	12.444245
O	3.495658	14.726406	14.726406
O	5.617928	17.172136	10.175940
O	5.620367	14.726406	12.621670
O	3.498098	17.172136	17.172136
O	3.354105	14.903831	10.319933
O	1.297489	12.376549	14.971527
O	1.297489	14.971527	12.376549
O	3.354105	12.444245	17.028144
O	8.063657	10.178380	14.726406
O	1.052368	12.621670	10.178380
O	1.052368	10.178380	12.621670
O	8.063657	12.621670	17.169696
O	7.886233	10.319933	10.319933
O	5.761920	17.028144	14.903831
O	5.761920	10.319933	12.444245
O	7.886233	17.028144	17.028144
O	8.063657	14.726406	10.178380
O	1.052368	17.169696	14.726406
O	1.052368	14.726406	17.169696
O	8.063657	17.169696	12.621670
O	7.818536	14.971527	14.971527
O	5.761920	12.444245	10.319933
O	5.761920	14.903831	17.028144
O	7.818536	12.376549	12.376549
Li	11.375764	2.298274	2.298274
Li	13.674038	0.000000	4.558013
Li	11.375764	6.817752	6.817752
Li	13.674038	4.558013	0.000000
Li	15.972312	2.298274	6.817752
Li	9.116025	0.000000	0.000000
Li	15.972312	6.817752	2.298274
In	10.265604	8.010780	3.408434
In	12.538704	1.135335	7.980691
In	12.568793	3.408434	5.707592
In	10.265604	1.105245	5.707592
In	10.265604	3.408434	8.010780
In	12.568793	5.707592	3.408434
In	12.538704	7.980691	1.135335
In	10.265604	5.707592	1.105245
In	14.809373	7.980691	7.980691
In	17.082472	1.105245	3.408434
In	17.082472	3.408434	1.105245
In	14.809373	1.135335	1.135335
In	14.779284	3.408434	3.408434
In	17.082472	5.707592	8.010780
In	17.082472	8.010780	5.707592
In	14.779284	5.707592	5.707592
O	12.614123	1.059915	1.059915
O	14.736393	3.505644	5.610381
O	14.733953	1.059915	8.056110
O	12.611683	3.505644	3.505644
O	12.470131	1.203907	5.787806
O	10.345818	7.912118	1.203907
O	10.345818	1.203907	7.912118
O	12.470131	7.912118	3.328220
O	12.611683	5.610381	5.610381
O	14.733953	8.056110	1.059915
O	14.736393	5.610381	3.505644
O	12.614123	8.056110	8.056110
O	12.470131	5.787806	1.203907
O	10.413515	3.260523	5.855502
O	10.413515	5.855502	3.260523
O	12.470131	3.328220	7.912118
O	17.179682	1.062355	5.610381
O	10.168394	3.505644	1.062355
O	10.168394	1.062355	3.505644
O	17.179682	3.505644	8.053671
O	17.002258	1.203907	1.203907
O	14.877945	7.912118	5.787806
O	14.877945	1.203907	3.328220
O	17.002258	7.912118	7.912118
O	17.179682	5.610381	1.062355
O	10.168394	8.053671	5.610381
O	10.168394	5.610381	8.053671
O	17.179682	8.053671	3.505644
O	16.934562	5.855502	5.855502
O	14.877945	3.328220	1.203907
O	14.877945	5.787806	7.912118
O	16.934562	3.260523	3.260523
Li	11.375764	2.298274	11.414299
Li	13.674038	0.000000	13.674038
Li	11.375764	6.817752	15.933777
Li	13.674038	4.558013	9.116025
Li	15.972312	2.298274	15.933777
Li	9.116025	0.000000	9.116025
Li	15.972312	6.817752	11.414299
In	10.265604	8.010780	12.524459
In	12.538704	1.135335	17.096716
In	12.568793	3.408434	14.823617
In	10.265604	1.105245	14.823617
In	10.265604	3.408434	17.126805
In	12.568793	5.707592	12.524459
In	12.538704	7.980691	10.251360
In	10.265604	5.707592	10.221271
In	14.809373	7.980691	17.096716
In	17.082472	1.105245	12.524459
In	17.082472	3.408434	10.221271
In	14.809373	1.135335	10.251360
In	14.779284	3.408434	12.524459
In	17.082472	5.707592	17.126805
In	17.082472	8.010780	14.823617
In	14.779284	5.707592	14.823617
O	12.614123	1.059915	10.175940
O	14.736393	3.505644	14.726406
O	14.733953	1.059915	17.172136
O	12.611683	3.505644	12.621670
O	12.470131	1.203907	14.903831
O	10.345818	7.912118	10.319933
O	10.345818	1.203907	17.028144
O	12.470131	7.912118	12.444245
O	12.611683	5.610381	14.726406
O	14.733953	8.056110	10.175940
O	14.736393	5.610381	12.621670
O	12.614123	8.056110	17.172136
O	12.470131	5.787806	10.319933
O	10.413515	3.260523	14.971527
O	10.413515	5.855502	12.376549
O	12.470131	3.328220	17.028144
O	17.179682	1.062355	14.726406
O	10.168394	3.505644	10.178380
O	10.168394	1.062355	12.621670
O	17.179682	3.505644	17.169696
O	17.002258	1.203907	10.319933
O	14.877945	7.912118	14.903831
O	14.877945	1.203907	12.444245
O	17.002258	7.912118	17.028144
O	17.179682	5.610381	10.178380
O	10.168394	8.053671	14.726406
O	10.168394	5.610381	17.169696
O	17.179682	8.053671	12.621670
O	16.934562	5.855502	14.971527
O	14.877945	3.328220	10.319933
O	14.877945	5.787806	17.028144
O	16.934562	3.260523	12.376549
Li	11.375764	11.414299	2.298274
Li	13.674038	9.116025	4.558013
Li	11.375764	15.933777	6.817752
Li	13.674038	13.674038	0.000000
Li	15.972312	11.414299	6.817752
Li	9.116025	9.116025	0.000000
Li	15.972312	15.933777	2.298274
In	10.265604	17.126805	3.408434
In	12.538704	10.251360	7.980691
In	12.568793	12.524459	5.707592
In	10.265604	10.221271	5.707592
In	10.265604	12.524459	8.010780
In	12.568793	14.823617	3.408434
In	12.538704	17.096716	1.135335
In	10.265604	14.823617	1.105245
In	14.809373	17.096716	7.980691
In	17.082472	10.221271	3.408434
In	17.082472	12.524459	1.105245
In	14.809373	10.251360	1.135335
In	14.779284	12.524459	3.408434
In	17.082472	14.823617	8.010780
In	17.082472	17.126805	5.707592
In	14.779284	14.823617	5.707592
O	12.614123	10.175940	1.059915
O	14.736393	12.621670	5.610381
O	14.733953	10.175940	8.056110
O	12.611683	12.621670	3.505644
O	12.470131	10.319933	5.787806
O	10.345818	17.028144	1.203907
O	10.345818	10.319933	7.912118
O	12.470131	17.028144	3.328220
O	12.611683	14.726406	5.610381
O	14.733953	17.172136	1.059915
O	14.736393	14.726406	3.505644
O	12.614123	17.172136	8.056110
O	12.470131	14.903831	1.203907
O	10.413515	12.376549	5.855502
O	10.413515	14.971527	3.260523
O	12.470131	12.444245	7.912118
O	17.179682	10.178380	5.610381
O	10.168394	12.621670	1.062355
O	10.168394	10.178380	3.505644
O	17.179682	12.621670	8.053671
O	17.002258	10.319933	1.203907
O	14.877945	17.028144	5.787806
O	14.877945	10.319933	3.328220
O	17.002258	17.028144	7.912118
O	17.179682	14.726406	1.062355
O	10.168394	17.169696	5.610381
O	10.168394	14.726406	8.053671
O	17.179682	17.169696	3.505644
O	16.934562	14.971527	5.855502
O	14.877945	12.444245	1.203907
O	14.877945	14.903831	7.912118
O	16.934562	12.376549	3.260523
Li	11.375764	11.414299	11.414299
Li	13.674038	9.116025	13.674038
Li	11.375764	15.933777	15.933777
Li	13.674038	13.674038	9.116025
Li	15.972312	11.414299	15.933777
Li	9.116025	9.116025	9.116025
Li	15.972312	15.933777	11.414299
In	10.265604	17.126805	12.524459
In	12.538704	10.251360	17.096716
In	12.568793	12.524459	14.823617
In	10.265604	10.221271	14.823617
In	10.265604	12.524459	17.126805
In	12.568793	14.823617	12.524459
In	12.538704	17.096716	10.251360
In	10.265604	14.823617	10.221271
In	14.809373	17.096716	17.096716
In	17.082472	10.221271	12.524459
In	17.082472	12.524459	10.221271
In	14.809373	10.251360	10.251360
In	14.779284	12.524459	12.524459
In	17.082472	14.823617	17.126805
In	17.082472	17.126805	14.823617
In	14.779284	14.823617	14.823617
O	12.614123	10.175940	10.175940
O	14.736393	12.621670	14.726406
O	14.733953	10.175940	17.172136
O	12.611683	12.621670	12.621670
O	12.470131	10.319933	14.903831
O	10.345818	17.028144	10.319933
O	10.345818	10.319933	17.028144
O	12.470131	17.028144	12.444245
O	12.611683	14.726406	14.726406
O	14.733953	17.172136	10.175940
O	14.736393	14.726406	12.621670
O	12.614123	17.172136	17.172136
O	12.470131	14.903831	10.319933
O	10.413515	12.376549	14.971527
O	10.413515	14.971527	12.376549
O	12.470131	12.444245	17.028144
O	17.179682	10.178380	14.726406
O	10.168394	12.621670	10.178380
O	10.168394	10.178380	12.621670
O	17.179682	12.621670	17.169696
O	17.002258	10.319933	10.319933
O	14.877945	17.028144	14.903831
O	14.877945	10.319933	12.444245
O	17.002258	17.028144	17.028144
O	17.179682	14.726406	10.178380
O	10.168394	17.169696	14.726406
O	10.168394	14.726406	17.169696
O	17.179682	17.169696	12.621670
O	16.934562	14.971527	14.971527
O	14.877945	12.444245	10.319933
O	14.877945	14.903831	17.028144
O	16.934562	12.376549	12.376549
