40

Au	2.036188	2.036188	2.036188
O	0.000000	2.036188	2.036188
O	2.036188	0.000000	2.036188
O	2.036188	2.036188	0.000000
Tc	0.000000	0.000000	0.000000
Au	2.036188	2.036188	6.108565
O	0.000000	2.036188	6.108565
O	2.036188	0.000000	6.108565
O	2.036188	2.036188	4.072376
Tc	0.000000	0.000000	4.072376
Au	2.036188	6.108565	2.036188
O	0.000000	6.108565	2.036188
O	2.036188	4.072376	2.036188
O	2.036188	6.108565	0.000000
Tc	0.000000	4.072376	0.000000
Au	2.036188	6.108565	6.108565
O	0.000000	6.108565	6.108565
O	2.036188	4.072376	6.108565
O	2.036188	6.108565	4.072376
Tc	0.000000	4.072376	4.072376
Au	6.108565	2.036188	2.036188
O	4.072376	2.036188	2.036188
O	6.108565	0.000000	2.036188
O	6.108565	2.036188	0.000000
Tc	4.072376	0.000000	0.000000
Au	6.108565	2.036188	6.108565
O	4.072376	2.036188	6.108565
O	6.108565	0.000000	6.108565
O	6.108565	2.036188	4.072376
Tc	4.072376	0.000000	4.072376
Au	6.108565	6.108565	2.036188
O	4.072376	6.108565	2.036188
O	6.108565	4.072376	2.036188
O	6.108565	6.108565	0.000000
Tc	4.072376	4.072376	0.000000
Au	6.108565	6.108565	6.108565
O	4.072376	6.108565	6.108565
O	6.108565	4.072376	6.108565
O	6.108565	6.108565	4.072376
Tc	4.072376	4.072376	4.072376
