40

O	0.000000	1.869772	1.869772
O	1.869772	0.000000	1.869772
O	1.869772	1.869772	0.000000
Sb	0.000000	0.000000	0.000000
Si	1.869772	1.869772	1.869772
O	0.000000	1.869772	5.609316
O	1.869772	0.000000	5.609316
O	1.869772	1.869772	3.739544
Sb	0.000000	0.000000	3.739544
Si	1.869772	1.869772	5.609316
O	0.000000	5.609316	1.869772
O	1.869772	3.739544	1.869772
O	1.869772	5.609316	0.000000
Sb	0.000000	3.739544	0.000000
Si	1.869772	5.609316	1.869772
O	0.000000	5.609316	5.609316
O	1.869772	3.739544	5.609316
O	1.869772	5.609316	3.739544
Sb	0.000000	3.739544	3.739544
Si	1.869772	5.609316	5.609316
O	3.739544	1.869772	1.869772
O	5.609316	0.000000	1.869772
O	5.609316	1.869772	0.000000
Sb	3.739544	0.000000	0.000000
Si	5.609316	1.869772	1.869772
O	3.739544	1.869772	5.609316
O	5.609316	0.000000	5.609316
O	5.609316	1.869772	3.739544
Sb	3.739544	0.000000	3.739544
Si	5.609316	1.869772	5.609316
O	3.739544	5.609316	1.869772
O	5.609316	3.739544	1.869772
O	5.609316	5.609316	0.000000
Sb	3.739544	3.739544	0.000000
Si	5.609316	5.609316	1.869772
O	3.739544	5.609316	5.609316
O	5.609316	3.739544	5.609316
O	5.609316	5.609316	3.739544
Sb	3.739544	3.739544	3.739544
Si	5.609316	5.609316	5.609316
