40

O	1.873525	1.873525	0.000000
O	1.873525	0.000000	1.873525
O	0.000000	1.873525	1.873525
Sb	0.000000	0.000000	0.000000
Si	1.873525	1.873525	1.873525
O	1.873525	1.873525	3.747050
O	1.873525	0.000000	5.620575
O	0.000000	1.873525	5.620575
Sb	0.000000	0.000000	3.747050
Si	1.873525	1.873525	5.620575
O	1.873525	5.620575	0.000000
O	1.873525	3.747050	1.873525
O	0.000000	5.620575	1.873525
Sb	0.000000	3.747050	0.000000
Si	1.873525	5.620575	1.873525
O	1.873525	5.620575	3.747050
O	1.873525	3.747050	5.620575
O	0.000000	5.620575	5.620575
Sb	0.000000	3.747050	3.747050
Si	1.873525	5.620575	5.620575
O	5.620575	1.873525	0.000000
O	5.620575	0.000000	1.873525
O	3.747050	1.873525	1.873525
Sb	3.747050	0.000000	0.000000
Si	5.620575	1.873525	1.873525
O	5.620575	1.873525	3.747050
O	5.620575	0.000000	5.620575
O	3.747050	1.873525	5.620575
Sb	3.747050	0.000000	3.747050
Si	5.620575	1.873525	5.620575
O	5.620575	5.620575	0.000000
O	5.620575	3.747050	1.873525
O	3.747050	5.620575	1.873525
Sb	3.747050	3.747050	0.000000
Si	5.620575	5.620575	1.873525
O	5.620575	5.620575	3.747050
O	5.620575	3.747050	5.620575
O	3.747050	5.620575	5.620575
Sb	3.747050	3.747050	3.747050
Si	5.620575	5.620575	5.620575
