40

O	0.000000	2.039741	2.039741
O	2.039741	0.000000	2.039741
O	2.039741	2.039741	0.000000
Sb	2.039741	2.039741	2.039741
Si	0.000000	0.000000	0.000000
O	0.000000	2.039741	6.119223
O	2.039741	0.000000	6.119223
O	2.039741	2.039741	4.079482
Sb	2.039741	2.039741	6.119223
Si	0.000000	0.000000	4.079482
O	0.000000	6.119223	2.039741
O	2.039741	4.079482	2.039741
O	2.039741	6.119223	0.000000
Sb	2.039741	6.119223	2.039741
Si	0.000000	4.079482	0.000000
O	0.000000	6.119223	6.119223
O	2.039741	4.079482	6.119223
O	2.039741	6.119223	4.079482
Sb	2.039741	6.119223	6.119223
Si	0.000000	4.079482	4.079482
O	4.079482	2.039741	2.039741
O	6.119223	0.000000	2.039741
O	6.119223	2.039741	0.000000
Sb	6.119223	2.039741	2.039741
Si	4.079482	0.000000	0.000000
O	4.079482	2.039741	6.119223
O	6.119223	0.000000	6.119223
O	6.119223	2.039741	4.079482
Sb	6.119223	2.039741	6.119223
Si	4.079482	0.000000	4.079482
O	4.079482	6.119223	2.039741
O	6.119223	4.079482	2.039741
O	6.119223	6.119223	0.000000
Sb	6.119223	6.119223	2.039741
Si	4.079482	4.079482	0.000000
O	4.079482	6.119223	6.119223
O	6.119223	4.079482	6.119223
O	6.119223	6.119223	4.079482
Sb	6.119223	6.119223	6.119223
Si	4.079482	4.079482	4.079482
