40

O	2.176630	2.176630	0.000000
O	0.000000	2.176630	2.176630
O	2.176630	0.000000	2.176630
Os_pv	0.000000	0.000000	0.000000
Pa	2.176630	2.176630	2.176630
O	2.176630	2.176630	4.353257
O	0.000000	2.176630	6.529887
O	2.176630	0.000000	6.529887
Os_pv	0.000000	0.000000	4.353257
Pa	2.176630	2.176630	6.529887
O	2.176630	6.529887	0.000000
O	0.000000	6.529887	2.176630
O	2.176630	4.353257	2.176630
Os_pv	0.000000	4.353257	0.000000
Pa	2.176630	6.529887	2.176630
O	2.176630	6.529887	4.353257
O	0.000000	6.529887	6.529887
O	2.176630	4.353257	6.529887
Os_pv	0.000000	4.353257	4.353257
Pa	2.176630	6.529887	6.529887
O	6.529887	2.176630	0.000000
O	4.353257	2.176630	2.176630
O	6.529887	0.000000	2.176630
Os_pv	4.353257	0.000000	0.000000
Pa	6.529887	2.176630	2.176630
O	6.529887	2.176630	4.353257
O	4.353257	2.176630	6.529887
O	6.529887	0.000000	6.529887
Os_pv	4.353257	0.000000	4.353257
Pa	6.529887	2.176630	6.529887
O	6.529887	6.529887	0.000000
O	4.353257	6.529887	2.176630
O	6.529887	4.353257	2.176630
Os_pv	4.353257	4.353257	0.000000
Pa	6.529887	6.529887	2.176630
O	6.529887	6.529887	4.353257
O	4.353257	6.529887	6.529887
O	6.529887	4.353257	6.529887
Os_pv	4.353257	4.353257	4.353257
Pa	6.529887	6.529887	6.529887
