40

O	2.192800	2.192800	0.000000
O	2.192800	0.000000	2.192800
O	0.000000	2.192800	2.192800
Os	0.000000	0.000000	0.000000
Pa	2.192800	2.192800	2.192800
O	2.192800	2.192800	4.385601
O	2.192800	0.000000	6.578401
O	0.000000	2.192800	6.578401
Os	0.000000	0.000000	4.385601
Pa	2.192800	2.192800	6.578401
O	2.192800	6.578401	0.000000
O	2.192800	4.385601	2.192800
O	0.000000	6.578401	2.192800
Os	0.000000	4.385601	0.000000
Pa	2.192800	6.578401	2.192800
O	2.192800	6.578401	4.385601
O	2.192800	4.385601	6.578401
O	0.000000	6.578401	6.578401
Os	0.000000	4.385601	4.385601
Pa	2.192800	6.578401	6.578401
O	6.578401	2.192800	0.000000
O	6.578401	0.000000	2.192800
O	4.385601	2.192800	2.192800
Os	4.385601	0.000000	0.000000
Pa	6.578401	2.192800	2.192800
O	6.578401	2.192800	4.385601
O	6.578401	0.000000	6.578401
O	4.385601	2.192800	6.578401
Os	4.385601	0.000000	4.385601
Pa	6.578401	2.192800	6.578401
O	6.578401	6.578401	0.000000
O	6.578401	4.385601	2.192800
O	4.385601	6.578401	2.192800
Os	4.385601	4.385601	0.000000
Pa	6.578401	6.578401	2.192800
O	6.578401	6.578401	4.385601
O	6.578401	4.385601	6.578401
O	4.385601	6.578401	6.578401
Os	4.385601	4.385601	4.385601
Pa	6.578401	6.578401	6.578401
