40

F	0.000000	1.972864	1.972864
F	1.972864	0.000000	1.972864
F	1.972864	1.972864	0.000000
Mg	1.972864	1.972864	1.972864
O	0.000000	0.000000	0.000000
F	0.000000	1.972864	5.918593
F	1.972864	0.000000	5.918593
F	1.972864	1.972864	3.945729
Mg	1.972864	1.972864	5.918593
O	0.000000	0.000000	3.945729
F	0.000000	5.918593	1.972864
F	1.972864	3.945729	1.972864
F	1.972864	5.918593	0.000000
Mg	1.972864	5.918593	1.972864
O	0.000000	3.945729	0.000000
F	0.000000	5.918593	5.918593
F	1.972864	3.945729	5.918593
F	1.972864	5.918593	3.945729
Mg	1.972864	5.918593	5.918593
O	0.000000	3.945729	3.945729
F	3.945729	1.972864	1.972864
F	5.918593	0.000000	1.972864
F	5.918593	1.972864	0.000000
Mg	5.918593	1.972864	1.972864
O	3.945729	0.000000	0.000000
F	3.945729	1.972864	5.918593
F	5.918593	0.000000	5.918593
F	5.918593	1.972864	3.945729
Mg	5.918593	1.972864	5.918593
O	3.945729	0.000000	3.945729
F	3.945729	5.918593	1.972864
F	5.918593	3.945729	1.972864
F	5.918593	5.918593	0.000000
Mg	5.918593	5.918593	1.972864
O	3.945729	3.945729	0.000000
F	3.945729	5.918593	5.918593
F	5.918593	3.945729	5.918593
F	5.918593	5.918593	3.945729
Mg	5.918593	5.918593	5.918593
O	3.945729	3.945729	3.945729
