40

Nd	2.298180	2.298180	2.298180
O	2.298180	2.298180	0.000000
O	0.000000	2.298180	2.298180
O	2.298180	0.000000	2.298180
Rb	0.000000	0.000000	0.000000
Nd	2.298180	2.298180	6.894539
O	2.298180	2.298180	4.596359
O	0.000000	2.298180	6.894539
O	2.298180	0.000000	6.894539
Rb	0.000000	0.000000	4.596359
Nd	2.298180	6.894539	2.298180
O	2.298180	6.894539	0.000000
O	0.000000	6.894539	2.298180
O	2.298180	4.596359	2.298180
Rb	0.000000	4.596359	0.000000
Nd	2.298180	6.894539	6.894539
O	2.298180	6.894539	4.596359
O	0.000000	6.894539	6.894539
O	2.298180	4.596359	6.894539
Rb	0.000000	4.596359	4.596359
Nd	6.894539	2.298180	2.298180
O	6.894539	2.298180	0.000000
O	4.596359	2.298180	2.298180
O	6.894539	0.000000	2.298180
Rb	4.596359	0.000000	0.000000
Nd	6.894539	2.298180	6.894539
O	6.894539	2.298180	4.596359
O	4.596359	2.298180	6.894539
O	6.894539	0.000000	6.894539
Rb	4.596359	0.000000	4.596359
Nd	6.894539	6.894539	2.298180
O	6.894539	6.894539	0.000000
O	4.596359	6.894539	2.298180
O	6.894539	4.596359	2.298180
Rb	4.596359	4.596359	0.000000
Nd	6.894539	6.894539	6.894539
O	6.894539	6.894539	4.596359
O	4.596359	6.894539	6.894539
O	6.894539	4.596359	6.894539
Rb	4.596359	4.596359	4.596359
