40

O	0.000000	1.881404	1.881404
O	1.881404	0.000000	1.881404
O	1.881404	1.881404	0.000000
S	0.000000	0.000000	0.000000
Zn	1.881404	1.881404	1.881404
O	0.000000	1.881404	5.644211
O	1.881404	0.000000	5.644211
O	1.881404	1.881404	3.762807
S	0.000000	0.000000	3.762807
Zn	1.881404	1.881404	5.644211
O	0.000000	5.644211	1.881404
O	1.881404	3.762807	1.881404
O	1.881404	5.644211	0.000000
S	0.000000	3.762807	0.000000
Zn	1.881404	5.644211	1.881404
O	0.000000	5.644211	5.644211
O	1.881404	3.762807	5.644211
O	1.881404	5.644211	3.762807
S	0.000000	3.762807	3.762807
Zn	1.881404	5.644211	5.644211
O	3.762807	1.881404	1.881404
O	5.644211	0.000000	1.881404
O	5.644211	1.881404	0.000000
S	3.762807	0.000000	0.000000
Zn	5.644211	1.881404	1.881404
O	3.762807	1.881404	5.644211
O	5.644211	0.000000	5.644211
O	5.644211	1.881404	3.762807
S	3.762807	0.000000	3.762807
Zn	5.644211	1.881404	5.644211
O	3.762807	5.644211	1.881404
O	5.644211	3.762807	1.881404
O	5.644211	5.644211	0.000000
S	3.762807	3.762807	0.000000
Zn	5.644211	5.644211	1.881404
O	3.762807	5.644211	5.644211
O	5.644211	3.762807	5.644211
O	5.644211	5.644211	3.762807
S	3.762807	3.762807	3.762807
Zn	5.644211	5.644211	5.644211
