40

Li	0.000000	0.000000	0.000000
O	2.266390	2.266390	0.000000
O	2.266390	0.000000	2.266390
O	0.000000	2.266390	2.266390
Sr	2.266390	2.266390	2.266390
Li	0.000000	0.000000	4.532778
O	2.266390	2.266390	4.532778
O	2.266390	0.000000	6.799168
O	0.000000	2.266390	6.799168
Sr	2.266390	2.266390	6.799168
Li	0.000000	4.532778	0.000000
O	2.266390	6.799168	0.000000
O	2.266390	4.532778	2.266390
O	0.000000	6.799168	2.266390
Sr	2.266390	6.799168	2.266390
Li	0.000000	4.532778	4.532778
O	2.266390	6.799168	4.532778
O	2.266390	4.532778	6.799168
O	0.000000	6.799168	6.799168
Sr	2.266390	6.799168	6.799168
Li	4.532778	0.000000	0.000000
O	6.799168	2.266390	0.000000
O	6.799168	0.000000	2.266390
O	4.532778	2.266390	2.266390
Sr	6.799168	2.266390	2.266390
Li	4.532778	0.000000	4.532778
O	6.799168	2.266390	4.532778
O	6.799168	0.000000	6.799168
O	4.532778	2.266390	6.799168
Sr	6.799168	2.266390	6.799168
Li	4.532778	4.532778	0.000000
O	6.799168	6.799168	0.000000
O	6.799168	4.532778	2.266390
O	4.532778	6.799168	2.266390
Sr	6.799168	6.799168	2.266390
Li	4.532778	4.532778	4.532778
O	6.799168	6.799168	4.532778
O	6.799168	4.532778	6.799168
O	4.532778	6.799168	6.799168
Sr	6.799168	6.799168	6.799168
