40

In	2.043373	2.043373	2.043373
Lu	0.000000	0.000000	0.000000
O	0.000000	2.043373	2.043373
O	2.043373	0.000000	2.043373
O	2.043373	2.043373	0.000000
In	2.043373	2.043373	6.130118
Lu	0.000000	0.000000	4.086745
O	0.000000	2.043373	6.130118
O	2.043373	0.000000	6.130118
O	2.043373	2.043373	4.086745
In	2.043373	6.130118	2.043373
Lu	0.000000	4.086745	0.000000
O	0.000000	6.130118	2.043373
O	2.043373	4.086745	2.043373
O	2.043373	6.130118	0.000000
In	2.043373	6.130118	6.130118
Lu	0.000000	4.086745	4.086745
O	0.000000	6.130118	6.130118
O	2.043373	4.086745	6.130118
O	2.043373	6.130118	4.086745
In	6.130118	2.043373	2.043373
Lu	4.086745	0.000000	0.000000
O	4.086745	2.043373	2.043373
O	6.130118	0.000000	2.043373
O	6.130118	2.043373	0.000000
In	6.130118	2.043373	6.130118
Lu	4.086745	0.000000	4.086745
O	4.086745	2.043373	6.130118
O	6.130118	0.000000	6.130118
O	6.130118	2.043373	4.086745
In	6.130118	6.130118	2.043373
Lu	4.086745	4.086745	0.000000
O	4.086745	6.130118	2.043373
O	6.130118	4.086745	2.043373
O	6.130118	6.130118	0.000000
In	6.130118	6.130118	6.130118
Lu	4.086745	4.086745	4.086745
O	4.086745	6.130118	6.130118
O	6.130118	4.086745	6.130118
O	6.130118	6.130118	4.086745
