40

Hg	2.089033	2.089033	2.089033
O	2.089033	2.089033	0.000000
O	2.089033	0.000000	2.089033
O	0.000000	2.089033	2.089033
Rh	0.000000	0.000000	0.000000
Hg	2.089033	2.089033	6.267098
O	2.089033	2.089033	4.178065
O	2.089033	0.000000	6.267098
O	0.000000	2.089033	6.267098
Rh	0.000000	0.000000	4.178065
Hg	2.089033	6.267098	2.089033
O	2.089033	6.267098	0.000000
O	2.089033	4.178065	2.089033
O	0.000000	6.267098	2.089033
Rh	0.000000	4.178065	0.000000
Hg	2.089033	6.267098	6.267098
O	2.089033	6.267098	4.178065
O	2.089033	4.178065	6.267098
O	0.000000	6.267098	6.267098
Rh	0.000000	4.178065	4.178065
Hg	6.267098	2.089033	2.089033
O	6.267098	2.089033	0.000000
O	6.267098	0.000000	2.089033
O	4.178065	2.089033	2.089033
Rh	4.178065	0.000000	0.000000
Hg	6.267098	2.089033	6.267098
O	6.267098	2.089033	4.178065
O	6.267098	0.000000	6.267098
O	4.178065	2.089033	6.267098
Rh	4.178065	0.000000	4.178065
Hg	6.267098	6.267098	2.089033
O	6.267098	6.267098	0.000000
O	6.267098	4.178065	2.089033
O	4.178065	6.267098	2.089033
Rh	4.178065	4.178065	0.000000
Hg	6.267098	6.267098	6.267098
O	6.267098	6.267098	4.178065
O	6.267098	4.178065	6.267098
O	4.178065	6.267098	6.267098
Rh	4.178065	4.178065	4.178065
