40

La	2.272404	2.272404	2.272404
O	2.272404	2.272404	0.000000
O	2.272404	0.000000	2.272404
O	0.000000	2.272404	2.272404
Tl	0.000000	0.000000	0.000000
La	2.272404	2.272404	6.817213
O	2.272404	2.272404	4.544809
O	2.272404	0.000000	6.817213
O	0.000000	2.272404	6.817213
Tl	0.000000	0.000000	4.544809
La	2.272404	6.817213	2.272404
O	2.272404	6.817213	0.000000
O	2.272404	4.544809	2.272404
O	0.000000	6.817213	2.272404
Tl	0.000000	4.544809	0.000000
La	2.272404	6.817213	6.817213
O	2.272404	6.817213	4.544809
O	2.272404	4.544809	6.817213
O	0.000000	6.817213	6.817213
Tl	0.000000	4.544809	4.544809
La	6.817213	2.272404	2.272404
O	6.817213	2.272404	0.000000
O	6.817213	0.000000	2.272404
O	4.544809	2.272404	2.272404
Tl	4.544809	0.000000	0.000000
La	6.817213	2.272404	6.817213
O	6.817213	2.272404	4.544809
O	6.817213	0.000000	6.817213
O	4.544809	2.272404	6.817213
Tl	4.544809	0.000000	4.544809
La	6.817213	6.817213	2.272404
O	6.817213	6.817213	0.000000
O	6.817213	4.544809	2.272404
O	4.544809	6.817213	2.272404
Tl	4.544809	4.544809	0.000000
La	6.817213	6.817213	6.817213
O	6.817213	6.817213	4.544809
O	6.817213	4.544809	6.817213
O	4.544809	6.817213	6.817213
Tl	4.544809	4.544809	4.544809
