112

Cs	0.000000	0.000000	0.000000
Cs	2.538785	-2.539500	-2.539500
O	-0.986823	0.986361	-4.092639
O	4.090757	-0.986361	-0.986361
O	0.986823	-0.986361	-4.092639
O	1.551972	1.553139	-1.553139
O	6.064403	0.986361	-0.986361
O	1.551972	3.525861	-3.525861
O	3.525608	3.525861	-1.553139
O	3.525608	1.553139	-3.525861
Sb	-1.269393	-1.269755	-3.809255
Sb	6.346973	-1.269755	-1.269755
Sb	1.269393	1.269755	-3.809255
Sb	3.808188	1.269755	-1.269755
Cs	5.077580	5.079001	0.000000
Cs	7.616365	2.539501	-2.539500
O	4.090757	6.065362	-4.092639
O	9.168337	4.092640	-0.986361
O	6.064403	4.092640	-4.092639
O	6.629552	6.632140	-1.553139
O	11.141983	6.065362	-0.986361
O	6.629552	8.604862	-3.525861
O	8.603188	8.604862	-1.553139
O	8.603188	6.632140	-3.525861
Sb	3.808187	3.809246	-3.809255
Sb	11.424553	3.809246	-1.269755
Sb	6.346973	6.348756	-3.809255
Sb	8.885768	6.348756	-1.269755
Cs	-5.077580	0.000000	-5.079001
Cs	-2.538795	-2.539500	-7.618501
O	-6.064403	0.986361	-9.171640
O	-0.986823	-0.986361	-6.065362
O	-4.090757	-0.986361	-9.171640
O	-3.525608	1.553139	-6.632140
O	0.986823	0.986361	-6.065362
O	-3.525608	3.525861	-8.604862
O	-1.551972	3.525861	-6.632140
O	-1.551972	1.553139	-8.604862
Sb	-6.346973	-1.269755	-8.888256
Sb	1.269393	-1.269755	-6.348756
Sb	-3.808187	1.269755	-8.888256
Sb	-1.269392	1.269755	-6.348756
Cs	0.000000	5.079001	-5.079001
Cs	2.538785	2.539501	-7.618501
O	-0.986823	6.065362	-9.171640
O	4.090757	4.092640	-6.065362
O	0.986823	4.092640	-9.171640
O	1.551972	6.632140	-6.632140
O	6.064403	6.065362	-6.065362
O	1.551972	8.604862	-8.604862
O	3.525608	8.604862	-6.632140
O	3.525608	6.632140	-8.604862
Sb	-1.269393	3.809246	-8.888256
Sb	6.346973	3.809246	-6.348756
Sb	1.269393	6.348756	-8.888256
Sb	3.808188	6.348756	-6.348756
Cs	5.077580	-5.079001	0.000000
Cs	7.616365	-7.618501	-2.539500
O	4.090757	-4.092640	-4.092639
O	9.168337	-6.065362	-0.986361
O	6.064403	-6.065362	-4.092639
O	6.629552	-3.525862	-1.553139
O	11.141983	-4.092640	-0.986361
O	6.629552	-1.553140	-3.525861
O	8.603188	-1.553140	-1.553139
O	8.603188	-3.525862	-3.525861
Sb	3.808187	-6.348756	-3.809255
Sb	11.424553	-6.348756	-1.269755
Sb	6.346973	-3.809246	-3.809255
Sb	8.885768	-3.809246	-1.269755
Cs	10.155160	0.000000	0.000000
Cs	12.693945	-2.539500	-2.539500
O	9.168337	0.986361	-4.092639
O	14.245917	-0.986361	-0.986361
O	11.141983	-0.986361	-4.092639
O	11.707132	1.553139	-1.553139
O	16.219563	0.986361	-0.986361
O	11.707132	3.525861	-3.525861
O	13.680768	3.525861	-1.553139
O	13.680768	1.553139	-3.525861
Sb	8.885767	-1.269755	-3.809255
Sb	16.502133	-1.269755	-1.269755
Sb	11.424553	1.269755	-3.809255
Sb	13.963348	1.269755	-1.269755
Cs	0.000000	-5.079001	-5.079001
Cs	2.538785	-7.618501	-7.618501
O	-0.986823	-4.092640	-9.171640
O	4.090757	-6.065362	-6.065362
O	0.986823	-6.065362	-9.171640
O	1.551972	-3.525862	-6.632140
O	6.064403	-4.092640	-6.065362
O	1.551972	-1.553140	-8.604862
O	3.525608	-1.553140	-6.632140
O	3.525608	-3.525862	-8.604862
Sb	-1.269393	-6.348756	-8.888256
Sb	6.346973	-6.348756	-6.348756
Sb	1.269393	-3.809246	-8.888256
Sb	3.808188	-3.809246	-6.348756
Cs	5.077580	0.000000	-5.079001
Cs	7.616365	-2.539500	-7.618501
O	4.090757	0.986361	-9.171640
O	9.168337	-0.986361	-6.065362
O	6.064403	-0.986361	-9.171640
O	6.629552	1.553139	-6.632140
O	11.141983	0.986361	-6.065362
O	6.629552	3.525861	-8.604862
O	8.603188	3.525861	-6.632140
O	8.603188	1.553139	-8.604862
Sb	3.808187	-1.269755	-8.888256
Sb	11.424553	-1.269755	-6.348756
Sb	6.346973	1.269755	-8.888256
Sb	8.885768	1.269755	-6.348756
