112

As	0.000000	0.000000	0.000000
As	2.359454	-2.359509	-2.359509
O	3.758230	-0.959867	-0.959867
O	-0.960678	0.959867	-3.759152
O	0.960678	-0.959867	-3.759152
O	1.398776	1.399643	-1.399643
O	5.679587	0.959867	-0.959867
O	1.398776	3.319376	-3.319376
O	3.320133	3.319376	-1.399643
O	3.320133	1.399643	-3.319376
Zr	-1.179727	-1.179755	-3.539264
Zr	3.539181	1.179755	-1.179755
Zr	5.898635	-1.179755	-1.179755
Zr	1.179727	1.179755	-3.539264
As	4.718908	4.719019	0.000000
As	7.078363	2.359509	-2.359509
O	8.477138	3.759152	-0.959867
O	3.758230	5.678886	-3.759152
O	5.679587	3.759152	-3.759152
O	6.117684	6.118662	-1.399643
O	10.398495	5.678886	-0.959867
O	6.117684	8.038395	-3.319376
O	8.039041	8.038395	-1.399643
O	8.039041	6.118662	-3.319376
Zr	3.539181	3.539264	-3.539264
Zr	8.258090	5.898774	-1.179755
Zr	10.617544	3.539264	-1.179755
Zr	5.898635	5.898774	-3.539264
As	-4.718908	0.000000	-4.719019
As	-2.359454	-2.359509	-7.078528
O	-0.960678	-0.959867	-5.678886
O	-5.679587	0.959867	-8.478171
O	-3.758230	-0.959867	-8.478171
O	-3.320133	1.399643	-6.118662
O	0.960678	0.959867	-5.678886
O	-3.320133	3.319376	-8.038395
O	-1.398776	3.319376	-6.118662
O	-1.398776	1.399643	-8.038395
Zr	-5.898635	-1.179755	-8.258283
Zr	-1.179727	1.179755	-5.898774
Zr	1.179727	-1.179755	-5.898774
Zr	-3.539181	1.179755	-8.258283
As	0.000000	4.719019	-4.719019
As	2.359454	2.359509	-7.078528
O	3.758230	3.759152	-5.678886
O	-0.960678	5.678886	-8.478171
O	0.960678	3.759152	-8.478171
O	1.398776	6.118662	-6.118662
O	5.679587	5.678886	-5.678886
O	1.398776	8.038395	-8.038395
O	3.320133	8.038395	-6.118662
O	3.320133	6.118662	-8.038395
Zr	-1.179727	3.539264	-8.258283
Zr	3.539181	5.898774	-5.898774
Zr	5.898635	3.539264	-5.898774
Zr	1.179727	5.898774	-8.258283
As	4.718908	-4.719019	0.000000
As	7.078363	-7.078528	-2.359509
O	8.477138	-5.678886	-0.959867
O	3.758230	-3.759152	-3.759152
O	5.679587	-5.678886	-3.759152
O	6.117684	-3.319376	-1.399643
O	10.398495	-3.759152	-0.959867
O	6.117684	-1.399643	-3.319376
O	8.039041	-1.399643	-1.399643
O	8.039041	-3.319376	-3.319376
Zr	3.539181	-5.898774	-3.539264
Zr	8.258090	-3.539264	-1.179755
Zr	10.617544	-5.898774	-1.179755
Zr	5.898635	-3.539264	-3.539264
As	9.437817	0.000000	0.000000
As	11.797271	-2.359509	-2.359509
O	13.196047	-0.959867	-0.959867
O	8.477138	0.959867	-3.759152
O	10.398495	-0.959867	-3.759152
O	10.836593	1.399643	-1.399643
O	15.117403	0.959867	-0.959867
O	10.836592	3.319376	-3.319376
O	12.757949	3.319376	-1.399643
O	12.757949	1.399643	-3.319376
Zr	8.258090	-1.179755	-3.539264
Zr	12.976998	1.179755	-1.179755
Zr	15.336452	-1.179755	-1.179755
Zr	10.617544	1.179755	-3.539264
As	0.000000	-4.719019	-4.719019
As	2.359454	-7.078528	-7.078528
O	3.758230	-5.678886	-5.678886
O	-0.960678	-3.759152	-8.478171
O	0.960678	-5.678886	-8.478171
O	1.398776	-3.319376	-6.118662
O	5.679587	-3.759152	-5.678886
O	1.398776	-1.399643	-8.038395
O	3.320133	-1.399643	-6.118662
O	3.320133	-3.319376	-8.038395
Zr	-1.179727	-5.898774	-8.258283
Zr	3.539181	-3.539264	-5.898774
Zr	5.898635	-5.898774	-5.898774
Zr	1.179727	-3.539264	-8.258283
As	4.718908	0.000000	-4.719019
As	7.078363	-2.359509	-7.078528
O	8.477138	-0.959867	-5.678886
O	3.758230	0.959867	-8.478171
O	5.679587	-0.959867	-8.478171
O	6.117684	1.399643	-6.118662
O	10.398495	0.959867	-5.678886
O	6.117684	3.319376	-8.038395
O	8.039041	3.319376	-6.118662
O	8.039041	1.399643	-8.038395
Zr	3.539181	-1.179755	-8.258283
Zr	8.258090	1.179755	-5.898774
Zr	10.617544	-1.179755	-5.898774
Zr	5.898635	1.179755	-8.258283
