112

Hg	0.000000	0.000000	0.000000
Hg	2.158975	-2.159556	-2.159556
Li	-1.079488	-1.079778	-3.239334
Li	3.238463	1.079778	-1.079778
Li	5.397438	-1.079778	-1.079778
Li	1.079488	1.079778	-3.239334
O	3.370414	-0.946808	-0.946808
O	-0.947536	0.946808	-3.372304
O	0.947536	-0.946808	-3.372304
O	1.211439	1.212748	-1.212748
O	5.265486	0.946808	-0.946808
O	1.211439	3.106364	-3.106364
O	3.106511	3.106364	-1.212748
O	3.106511	1.212748	-3.106364
Hg	4.317950	4.319112	0.000000
Hg	6.476925	2.159556	-2.159556
Li	3.238463	3.239334	-3.239334
Li	7.556413	5.398890	-1.079778
Li	9.715388	3.239334	-1.079778
Li	5.397438	5.398890	-3.239334
O	7.688365	3.372304	-0.946808
O	3.370414	5.265920	-3.372304
O	5.265486	3.372304	-3.372304
O	5.529390	5.531860	-1.212748
O	9.583436	5.265920	-0.946808
O	5.529390	7.425475	-3.106364
O	7.424461	7.425475	-1.212748
O	7.424461	5.531860	-3.106364
Hg	-4.317950	0.000000	-4.319112
Hg	-2.158975	-2.159556	-6.478668
Li	-5.397438	-1.079778	-7.558446
Li	-1.079488	1.079778	-5.398890
Li	1.079488	-1.079778	-5.398890
Li	-3.238463	1.079778	-7.558446
O	-0.947536	-0.946808	-5.265920
O	-5.265486	0.946808	-7.691416
O	-3.370414	-0.946808	-7.691416
O	-3.106511	1.212748	-5.531860
O	0.947536	0.946808	-5.265920
O	-3.106511	3.106364	-7.425475
O	-1.211439	3.106364	-5.531860
O	-1.211439	1.212748	-7.425475
Hg	0.000000	4.319112	-4.319112
Hg	2.158975	2.159556	-6.478668
Li	-1.079488	3.239334	-7.558446
Li	3.238463	5.398890	-5.398890
Li	5.397438	3.239334	-5.398890
Li	1.079488	5.398890	-7.558446
O	3.370414	3.372304	-5.265920
O	-0.947536	5.265920	-7.691416
O	0.947536	3.372304	-7.691416
O	1.211439	5.531860	-5.531860
O	5.265486	5.265920	-5.265920
O	1.211439	7.425475	-7.425475
O	3.106511	7.425475	-5.531860
O	3.106511	5.531860	-7.425475
Hg	4.317950	-4.319112	0.000000
Hg	6.476925	-6.478668	-2.159556
Li	3.238463	-5.398890	-3.239334
Li	7.556413	-3.239334	-1.079778
Li	9.715388	-5.398890	-1.079778
Li	5.397438	-3.239334	-3.239334
O	7.688365	-5.265920	-0.946808
O	3.370414	-3.372304	-3.372304
O	5.265486	-5.265920	-3.372304
O	5.529390	-3.106364	-1.212748
O	9.583436	-3.372304	-0.946808
O	5.529390	-1.212748	-3.106364
O	7.424461	-1.212748	-1.212748
O	7.424461	-3.106364	-3.106364
Hg	8.635901	0.000000	0.000000
Hg	10.794876	-2.159556	-2.159556
Li	7.556413	-1.079778	-3.239334
Li	11.874363	1.079778	-1.079778
Li	14.033338	-1.079778	-1.079778
Li	9.715388	1.079778	-3.239334
O	12.006315	-0.946808	-0.946808
O	7.688365	0.946808	-3.372304
O	9.583436	-0.946808	-3.372304
O	9.847340	1.212748	-1.212748
O	13.901387	0.946808	-0.946808
O	9.847340	3.106364	-3.106364
O	11.742411	3.106364	-1.212748
O	11.742411	1.212748	-3.106364
Hg	0.000000	-4.319112	-4.319112
Hg	2.158975	-6.478668	-6.478668
Li	-1.079488	-5.398890	-7.558446
Li	3.238463	-3.239334	-5.398890
Li	5.397438	-5.398890	-5.398890
Li	1.079488	-3.239334	-7.558446
O	3.370414	-5.265920	-5.265920
O	-0.947536	-3.372304	-7.691416
O	0.947536	-5.265920	-7.691416
O	1.211439	-3.106364	-5.531860
O	5.265486	-3.372304	-5.265920
O	1.211439	-1.212748	-7.425475
O	3.106511	-1.212748	-5.531860
O	3.106511	-3.106364	-7.425475
Hg	4.317950	0.000000	-4.319112
Hg	6.476925	-2.159556	-6.478668
Li	3.238463	-1.079778	-7.558446
Li	7.556413	1.079778	-5.398890
Li	9.715388	-1.079778	-5.398890
Li	5.397438	1.079778	-7.558446
O	7.688365	-0.946808	-5.265920
O	3.370414	0.946808	-7.691416
O	5.265486	-0.946808	-7.691416
O	5.529390	1.212748	-5.531860
O	9.583436	0.946808	-5.265920
O	5.529390	3.106364	-7.425475
O	7.424461	3.106364	-5.531860
O	7.424461	1.212748	-7.425475
