112

Nb	0.000000	0.000000	0.000000
Nb	2.183758	-2.184364	-2.184364
O	3.317380	-1.049874	-1.049874
O	-1.050135	1.049874	-3.318854
O	1.050135	-1.049874	-3.318854
O	1.133622	1.134490	-1.134490
O	5.417650	1.049874	-1.049874
O	1.133622	3.234238	-3.234238
O	3.233893	3.234238	-1.134490
O	3.233893	1.134490	-3.234238
Ru	-1.091879	-1.092182	-3.276546
Ru	3.275636	1.092182	-1.092182
Ru	5.459394	-1.092182	-1.092182
Ru	1.091879	1.092182	-3.276546
Nb	4.367515	4.368728	0.000000
Nb	6.551273	2.184364	-2.184364
O	7.684895	3.318854	-1.049874
O	3.317380	5.418603	-3.318854
O	5.417650	3.318854	-3.318854
O	5.501138	5.503219	-1.134490
O	9.785166	5.418603	-1.049874
O	5.501138	7.602967	-3.234238
O	7.601408	7.602967	-1.134490
O	7.601408	5.503219	-3.234238
Ru	3.275636	3.276546	-3.276546
Ru	7.643152	5.460911	-1.092182
Ru	9.826909	3.276546	-1.092182
Ru	5.459394	5.460911	-3.276546
Nb	-4.367515	0.000000	-4.368728
Nb	-2.183758	-2.184364	-6.553093
O	-1.050135	-1.049874	-5.418603
O	-5.417650	1.049874	-7.687583
O	-3.317380	-1.049874	-7.687583
O	-3.233893	1.134490	-5.503219
O	1.050135	1.049874	-5.418603
O	-3.233893	3.234238	-7.602967
O	-1.133622	3.234238	-5.503219
O	-1.133622	1.134490	-7.602967
Ru	-5.459394	-1.092182	-7.645275
Ru	-1.091879	1.092182	-5.460911
Ru	1.091879	-1.092182	-5.460911
Ru	-3.275636	1.092182	-7.645275
Nb	0.000000	4.368728	-4.368728
Nb	2.183758	2.184364	-6.553093
O	3.317380	3.318854	-5.418603
O	-1.050135	5.418603	-7.687583
O	1.050135	3.318854	-7.687583
O	1.133622	5.503219	-5.503219
O	5.417650	5.418603	-5.418603
O	1.133622	7.602967	-7.602967
O	3.233893	7.602967	-5.503219
O	3.233893	5.503219	-7.602967
Ru	-1.091879	3.276546	-7.645275
Ru	3.275636	5.460911	-5.460911
Ru	5.459394	3.276546	-5.460911
Ru	1.091879	5.460911	-7.645275
Nb	4.367515	-4.368728	0.000000
Nb	6.551273	-6.553093	-2.184364
O	7.684895	-5.418603	-1.049874
O	3.317380	-3.318854	-3.318854
O	5.417650	-5.418603	-3.318854
O	5.501138	-3.234238	-1.134490
O	9.785166	-3.318854	-1.049874
O	5.501138	-1.134490	-3.234238
O	7.601408	-1.134490	-1.134490
O	7.601408	-3.234238	-3.234238
Ru	3.275636	-5.460911	-3.276546
Ru	7.643152	-3.276546	-1.092182
Ru	9.826909	-5.460911	-1.092182
Ru	5.459394	-3.276546	-3.276546
Nb	8.735030	0.000000	0.000000
Nb	10.918788	-2.184364	-2.184364
O	12.052410	-1.049874	-1.049874
O	7.684895	1.049874	-3.318854
O	9.785165	-1.049874	-3.318854
O	9.868653	1.134490	-1.134490
O	14.152681	1.049874	-1.049874
O	9.868653	3.234238	-3.234238
O	11.968923	3.234238	-1.134490
O	11.968923	1.134490	-3.234238
Ru	7.643152	-1.092182	-3.276546
Ru	12.010667	1.092182	-1.092182
Ru	14.194424	-1.092182	-1.092182
Ru	9.826909	1.092182	-3.276546
Nb	0.000000	-4.368728	-4.368728
Nb	2.183758	-6.553093	-6.553093
O	3.317380	-5.418603	-5.418603
O	-1.050135	-3.318854	-7.687583
O	1.050135	-5.418603	-7.687583
O	1.133622	-3.234238	-5.503219
O	5.417650	-3.318854	-5.418603
O	1.133622	-1.134490	-7.602967
O	3.233893	-1.134490	-5.503219
O	3.233893	-3.234238	-7.602967
Ru	-1.091879	-5.460911	-7.645275
Ru	3.275636	-3.276546	-5.460911
Ru	5.459394	-5.460911	-5.460911
Ru	1.091879	-3.276546	-7.645275
Nb	4.367515	0.000000	-4.368728
Nb	6.551273	-2.184364	-6.553093
O	7.684895	-1.049874	-5.418603
O	3.317380	1.049874	-7.687583
O	5.417650	-1.049874	-7.687583
O	5.501138	1.134490	-5.503219
O	9.785166	1.049874	-5.418603
O	5.501138	3.234238	-7.602967
O	7.601408	3.234238	-5.503219
O	7.601408	1.134490	-7.602967
Ru	3.275636	-1.092182	-7.645275
Ru	7.643152	1.092182	-5.460911
Ru	9.826909	-1.092182	-5.460911
Ru	5.459394	1.092182	-7.645275
