40

Ni	1.803876	1.803876	1.803876
O	1.803876	1.803876	0.000000
O	1.803876	0.000000	1.803876
O	0.000000	1.803876	1.803876
Ti	0.000000	0.000000	0.000000
Ni	1.803876	1.803876	5.411626
O	1.803876	1.803876	3.607750
O	1.803876	0.000000	5.411626
O	0.000000	1.803876	5.411626
Ti	0.000000	0.000000	3.607750
Ni	1.803876	5.411626	1.803876
O	1.803876	5.411626	0.000000
O	1.803876	3.607750	1.803876
O	0.000000	5.411626	1.803876
Ti	0.000000	3.607750	0.000000
Ni	1.803876	5.411626	5.411626
O	1.803876	5.411626	3.607750
O	1.803876	3.607750	5.411626
O	0.000000	5.411626	5.411626
Ti	0.000000	3.607750	3.607750
Ni	5.411626	1.803876	1.803876
O	5.411626	1.803876	0.000000
O	5.411626	0.000000	1.803876
O	3.607750	1.803876	1.803876
Ti	3.607750	0.000000	0.000000
Ni	5.411626	1.803876	5.411626
O	5.411626	1.803876	3.607750
O	5.411626	0.000000	5.411626
O	3.607750	1.803876	5.411626
Ti	3.607750	0.000000	3.607750
Ni	5.411626	5.411626	1.803876
O	5.411626	5.411626	0.000000
O	5.411626	3.607750	1.803876
O	3.607750	5.411626	1.803876
Ti	3.607750	3.607750	0.000000
Ni	5.411626	5.411626	5.411626
O	5.411626	5.411626	3.607750
O	5.411626	3.607750	5.411626
O	3.607750	5.411626	5.411626
Ti	3.607750	3.607750	3.607750
