40

Ni	1.855557	1.855557	1.855557
O	0.000000	1.855557	1.855557
O	1.855557	0.000000	1.855557
O	1.855557	1.855557	0.000000
Pt	0.000000	0.000000	0.000000
Ni	1.855557	1.855557	5.566670
O	0.000000	1.855557	5.566670
O	1.855557	0.000000	5.566670
O	1.855557	1.855557	3.711114
Pt	0.000000	0.000000	3.711114
Ni	1.855557	5.566670	1.855557
O	0.000000	5.566670	1.855557
O	1.855557	3.711114	1.855557
O	1.855557	5.566670	0.000000
Pt	0.000000	3.711114	0.000000
Ni	1.855557	5.566670	5.566670
O	0.000000	5.566670	5.566670
O	1.855557	3.711114	5.566670
O	1.855557	5.566670	3.711114
Pt	0.000000	3.711114	3.711114
Ni	5.566670	1.855557	1.855557
O	3.711114	1.855557	1.855557
O	5.566670	0.000000	1.855557
O	5.566670	1.855557	0.000000
Pt	3.711114	0.000000	0.000000
Ni	5.566670	1.855557	5.566670
O	3.711114	1.855557	5.566670
O	5.566670	0.000000	5.566670
O	5.566670	1.855557	3.711114
Pt	3.711114	0.000000	3.711114
Ni	5.566670	5.566670	1.855557
O	3.711114	5.566670	1.855557
O	5.566670	3.711114	1.855557
O	5.566670	5.566670	0.000000
Pt	3.711114	3.711114	0.000000
Ni	5.566670	5.566670	5.566670
O	3.711114	5.566670	5.566670
O	5.566670	3.711114	5.566670
O	5.566670	5.566670	3.711114
Pt	3.711114	3.711114	3.711114
