40

Ni	1.873206	1.873206	1.873206
O	1.873206	1.873206	0.000000
O	1.873206	0.000000	1.873206
O	0.000000	1.873206	1.873206
Tb	0.000000	0.000000	0.000000
Ni	1.873206	1.873206	5.619619
O	1.873206	1.873206	3.746412
O	1.873206	0.000000	5.619619
O	0.000000	1.873206	5.619619
Tb	0.000000	0.000000	3.746412
Ni	1.873206	5.619619	1.873206
O	1.873206	5.619619	0.000000
O	1.873206	3.746412	1.873206
O	0.000000	5.619619	1.873206
Tb	0.000000	3.746412	0.000000
Ni	1.873206	5.619619	5.619619
O	1.873206	5.619619	3.746412
O	1.873206	3.746412	5.619619
O	0.000000	5.619619	5.619619
Tb	0.000000	3.746412	3.746412
Ni	5.619619	1.873206	1.873206
O	5.619619	1.873206	0.000000
O	5.619619	0.000000	1.873206
O	3.746412	1.873206	1.873206
Tb	3.746412	0.000000	0.000000
Ni	5.619619	1.873206	5.619619
O	5.619619	1.873206	3.746412
O	5.619619	0.000000	5.619619
O	3.746412	1.873206	5.619619
Tb	3.746412	0.000000	3.746412
Ni	5.619619	5.619619	1.873206
O	5.619619	5.619619	0.000000
O	5.619619	3.746412	1.873206
O	3.746412	5.619619	1.873206
Tb	3.746412	3.746412	0.000000
Ni	5.619619	5.619619	5.619619
O	5.619619	5.619619	3.746412
O	5.619619	3.746412	5.619619
O	3.746412	5.619619	5.619619
Tb	3.746412	3.746412	3.746412
