40

Ba	2.109873	2.109873	2.109873
O	2.109873	0.000000	0.000000
O	0.000000	2.109873	0.000000
O	0.000000	0.000000	2.109873
Zr	0.000000	0.000000	0.000000
Ba	2.109873	2.109873	6.329618
O	2.109873	0.000000	4.219746
O	0.000000	2.109873	4.219746
O	0.000000	0.000000	6.329618
Zr	0.000000	0.000000	4.219746
Ba	2.109873	6.329618	2.109873
O	2.109873	4.219746	0.000000
O	0.000000	6.329618	0.000000
O	0.000000	4.219746	2.109873
Zr	0.000000	4.219746	0.000000
Ba	2.109873	6.329618	6.329618
O	2.109873	4.219746	4.219746
O	0.000000	6.329618	4.219746
O	0.000000	4.219746	6.329618
Zr	0.000000	4.219746	4.219746
Ba	6.329618	2.109873	2.109873
O	6.329618	0.000000	0.000000
O	4.219746	2.109873	0.000000
O	4.219746	0.000000	2.109873
Zr	4.219746	0.000000	0.000000
Ba	6.329618	2.109873	6.329618
O	6.329618	0.000000	4.219746
O	4.219746	2.109873	4.219746
O	4.219746	0.000000	6.329618
Zr	4.219746	0.000000	4.219746
Ba	6.329618	6.329618	2.109873
O	6.329618	4.219746	0.000000
O	4.219746	6.329618	0.000000
O	4.219746	4.219746	2.109873
Zr	4.219746	4.219746	0.000000
Ba	6.329618	6.329618	6.329618
O	6.329618	4.219746	4.219746
O	4.219746	6.329618	4.219746
O	4.219746	4.219746	6.329618
Zr	4.219746	4.219746	4.219746
