112

Au	0.000000	0.000000	0.000000
Au	2.236564	-2.237230	-2.237230
O	3.553374	-0.919328	-0.919328
O	-0.919755	0.919328	-3.555132
O	0.919755	-0.919328	-3.555132
O	1.316809	1.317902	-1.317902
O	5.392883	0.919328	-0.919328
O	1.316810	3.156557	-3.156557
O	3.156319	3.156557	-1.317902
O	3.156319	1.317902	-3.156557
Os	-1.118282	-1.118615	-3.355844
Os	3.354846	1.118615	-1.118615
Os	5.591410	-1.118615	-1.118615
Os	1.118282	1.118615	-3.355844
Au	4.473128	4.474459	0.000000
Au	6.709692	2.237230	-2.237230
O	8.026502	3.555132	-0.919328
O	3.553374	5.393787	-3.555132
O	5.392883	3.555132	-3.555132
O	5.789938	5.792361	-1.317902
O	9.866011	5.393787	-0.919328
O	5.789938	7.631016	-3.156557
O	7.629447	7.631016	-1.317902
O	7.629447	5.792361	-3.156557
Os	3.354846	3.355844	-3.355844
Os	7.827974	5.593074	-1.118615
Os	10.064538	3.355844	-1.118615
Os	5.591410	5.593074	-3.355844
Au	-4.473128	0.000000	-4.474459
Au	-2.236564	-2.237230	-6.711689
O	-0.919755	-0.919328	-5.393787
O	-5.392883	0.919328	-8.029591
O	-3.553374	-0.919328	-8.029591
O	-3.156319	1.317902	-5.792361
O	0.919755	0.919328	-5.393787
O	-3.156319	3.156557	-7.631016
O	-1.316810	3.156557	-5.792361
O	-1.316809	1.317902	-7.631016
Os	-5.591410	-1.118615	-7.830304
Os	-1.118282	1.118615	-5.593074
Os	1.118282	-1.118615	-5.593074
Os	-3.354846	1.118615	-7.830304
Au	0.000000	4.474459	-4.474459
Au	2.236564	2.237230	-6.711689
O	3.553374	3.555132	-5.393787
O	-0.919755	5.393787	-8.029591
O	0.919755	3.555132	-8.029591
O	1.316809	5.792361	-5.792361
O	5.392883	5.393787	-5.393787
O	1.316810	7.631016	-7.631016
O	3.156319	7.631016	-5.792361
O	3.156319	5.792361	-7.631016
Os	-1.118282	3.355844	-7.830304
Os	3.354846	5.593074	-5.593074
Os	5.591410	3.355844	-5.593074
Os	1.118282	5.593074	-7.830304
Au	4.473128	-4.474459	0.000000
Au	6.709692	-6.711689	-2.237230
O	8.026502	-5.393787	-0.919328
O	3.553374	-3.555132	-3.555132
O	5.392883	-5.393787	-3.555132
O	5.789938	-3.156557	-1.317902
O	9.866011	-3.555132	-0.919328
O	5.789938	-1.317902	-3.156557
O	7.629447	-1.317902	-1.317902
O	7.629447	-3.156557	-3.156557
Os	3.354846	-5.593074	-3.355844
Os	7.827974	-3.355844	-1.118615
Os	10.064538	-5.593074	-1.118615
Os	5.591410	-3.355844	-3.355844
Au	8.946256	0.000000	0.000000
Au	11.182820	-2.237230	-2.237230
O	12.499630	-0.919328	-0.919328
O	8.026502	0.919328	-3.555132
O	9.866011	-0.919328	-3.555132
O	10.263066	1.317902	-1.317902
O	14.339139	0.919328	-0.919328
O	10.263066	3.156557	-3.156557
O	12.102575	3.156557	-1.317902
O	12.102575	1.317902	-3.156557
Os	7.827974	-1.118615	-3.355844
Os	12.301102	1.118615	-1.118615
Os	14.537666	-1.118615	-1.118615
Os	10.064538	1.118615	-3.355844
Au	0.000000	-4.474459	-4.474459
Au	2.236564	-6.711689	-6.711689
O	3.553374	-5.393787	-5.393787
O	-0.919755	-3.555132	-8.029591
O	0.919755	-5.393787	-8.029591
O	1.316809	-3.156557	-5.792361
O	5.392883	-3.555132	-5.393787
O	1.316810	-1.317902	-7.631016
O	3.156319	-1.317902	-5.792361
O	3.156319	-3.156557	-7.631016
Os	-1.118282	-5.593074	-7.830304
Os	3.354846	-3.355844	-5.593074
Os	5.591410	-5.593074	-5.593074
Os	1.118282	-3.355844	-7.830304
Au	4.473128	0.000000	-4.474459
Au	6.709692	-2.237230	-6.711689
O	8.026502	-0.919328	-5.393787
O	3.553374	0.919328	-8.029591
O	5.392883	-0.919328	-8.029591
O	5.789938	1.317902	-5.792361
O	9.866011	0.919328	-5.393787
O	5.789938	3.156557	-7.631016
O	7.629447	3.156557	-5.792361
O	7.629447	1.317902	-7.631016
Os	3.354846	-1.118615	-7.830304
Os	7.827974	1.118615	-5.593074
Os	10.064538	-1.118615	-5.593074
Os	5.591410	1.118615	-7.830304
