112

Mg	0.000000	0.000000	0.000000
Mg	2.108592	-2.108592	-2.108592
O	3.235603	-0.981581	-0.981581
O	-0.981581	0.981581	-3.235603
O	0.981581	-0.981581	-3.235603
O	1.127011	1.127011	-1.127011
O	5.198765	0.981581	-0.981581
O	3.090173	3.090173	-1.127011
O	1.127011	3.090173	-3.090173
O	3.090173	1.127011	-3.090173
V	-1.054296	-1.054296	-3.162888
V	3.162888	1.054296	-1.054296
V	5.271480	-1.054296	-1.054296
V	1.054296	1.054296	-3.162888
Mg	4.217184	4.217184	0.000000
Mg	6.325776	2.108592	-2.108592
O	7.452788	3.235603	-0.981581
O	3.235603	5.198765	-3.235603
O	5.198765	3.235603	-3.235603
O	5.344196	5.344195	-1.127011
O	9.415949	5.198765	-0.981581
O	7.307357	7.307357	-1.127011
O	5.344195	7.307357	-3.090173
O	7.307357	5.344195	-3.090173
V	3.162888	3.162888	-3.162888
V	7.380072	5.271480	-1.054296
V	9.488664	3.162888	-1.054296
V	5.271480	5.271480	-3.162888
Mg	-4.217184	0.000000	-4.217184
Mg	-2.108592	-2.108592	-6.325776
O	-0.981581	-0.981581	-5.198765
O	-5.198765	0.981581	-7.452788
O	-3.235603	-0.981581	-7.452788
O	-3.090173	1.127011	-5.344195
O	0.981581	0.981581	-5.198765
O	-1.127011	3.090173	-5.344195
O	-3.090173	3.090173	-7.307357
O	-1.127011	1.127011	-7.307357
V	-5.271480	-1.054296	-7.380072
V	-1.054296	1.054296	-5.271480
V	1.054296	-1.054296	-5.271480
V	-3.162888	1.054296	-7.380072
Mg	0.000000	4.217184	-4.217184
Mg	2.108592	2.108592	-6.325776
O	3.235603	3.235603	-5.198765
O	-0.981581	5.198765	-7.452788
O	0.981581	3.235603	-7.452788
O	1.127011	5.344195	-5.344195
O	5.198765	5.198765	-5.198765
O	3.090173	7.307357	-5.344195
O	1.127011	7.307357	-7.307357
O	3.090173	5.344195	-7.307357
V	-1.054296	3.162888	-7.380072
V	3.162888	5.271480	-5.271480
V	5.271480	3.162888	-5.271480
V	1.054296	5.271480	-7.380072
Mg	4.217184	-4.217184	0.000000
Mg	6.325776	-6.325776	-2.108592
O	7.452788	-5.198765	-0.981581
O	3.235603	-3.235603	-3.235603
O	5.198765	-5.198765	-3.235603
O	5.344196	-3.090173	-1.127011
O	9.415949	-3.235603	-0.981581
O	7.307357	-1.127011	-1.127011
O	5.344195	-1.127011	-3.090173
O	7.307357	-3.090173	-3.090173
V	3.162888	-5.271480	-3.162888
V	7.380072	-3.162888	-1.054296
V	9.488664	-5.271480	-1.054296
V	5.271480	-3.162888	-3.162888
Mg	8.434368	0.000000	0.000000
Mg	10.542960	-2.108592	-2.108592
O	11.669972	-0.981581	-0.981581
O	7.452788	0.981581	-3.235603
O	9.415949	-0.981581	-3.235603
O	9.561380	1.127011	-1.127011
O	13.633133	0.981581	-0.981581
O	11.524541	3.090173	-1.127011
O	9.561380	3.090173	-3.090173
O	11.524541	1.127011	-3.090173
V	7.380072	-1.054296	-3.162888
V	11.597256	1.054296	-1.054296
V	13.705848	-1.054296	-1.054296
V	9.488664	1.054296	-3.162888
Mg	0.000000	-4.217184	-4.217184
Mg	2.108592	-6.325776	-6.325776
O	3.235603	-5.198765	-5.198765
O	-0.981581	-3.235603	-7.452788
O	0.981581	-5.198765	-7.452788
O	1.127011	-3.090173	-5.344195
O	5.198765	-3.235603	-5.198765
O	3.090173	-1.127011	-5.344195
O	1.127011	-1.127011	-7.307357
O	3.090173	-3.090173	-7.307357
V	-1.054296	-5.271480	-7.380072
V	3.162888	-3.162888	-5.271480
V	5.271480	-5.271480	-5.271480
V	1.054296	-3.162888	-7.380072
Mg	4.217184	0.000000	-4.217184
Mg	6.325776	-2.108592	-6.325776
O	7.452788	-0.981581	-5.198765
O	3.235603	0.981581	-7.452788
O	5.198765	-0.981581	-7.452788
O	5.344196	1.127011	-5.344195
O	9.415949	0.981581	-5.198765
O	7.307357	3.090173	-5.344195
O	5.344195	3.090173	-7.307357
O	7.307357	1.127011	-7.307357
V	3.162888	-1.054296	-7.380072
V	7.380072	1.054296	-5.271480
V	9.488664	-1.054296	-5.271480
V	5.271480	1.054296	-7.380072
