40

K	2.249382	2.249382	2.249382
Mn	0.000000	0.000000	0.000000
O	0.000000	2.249382	2.249382
O	2.249382	0.000000	2.249382
O	2.249382	2.249382	0.000000
K	2.249382	2.249382	6.748147
Mn	0.000000	0.000000	4.498765
O	0.000000	2.249382	6.748147
O	2.249382	0.000000	6.748147
O	2.249382	2.249382	4.498765
K	2.249382	6.748147	2.249382
Mn	0.000000	4.498765	0.000000
O	0.000000	6.748147	2.249382
O	2.249382	4.498765	2.249382
O	2.249382	6.748147	0.000000
K	2.249382	6.748147	6.748147
Mn	0.000000	4.498765	4.498765
O	0.000000	6.748147	6.748147
O	2.249382	4.498765	6.748147
O	2.249382	6.748147	4.498765
K	6.748147	2.249382	2.249382
Mn	4.498765	0.000000	0.000000
O	4.498765	2.249382	2.249382
O	6.748147	0.000000	2.249382
O	6.748147	2.249382	0.000000
K	6.748147	2.249382	6.748147
Mn	4.498765	0.000000	4.498765
O	4.498765	2.249382	6.748147
O	6.748147	0.000000	6.748147
O	6.748147	2.249382	4.498765
K	6.748147	6.748147	2.249382
Mn	4.498765	4.498765	0.000000
O	4.498765	6.748147	2.249382
O	6.748147	4.498765	2.249382
O	6.748147	6.748147	0.000000
K	6.748147	6.748147	6.748147
Mn	4.498765	4.498765	4.498765
O	4.498765	6.748147	6.748147
O	6.748147	4.498765	6.748147
O	6.748147	6.748147	4.498765
