40

K	2.356065	2.356065	2.356065
O	0.000000	2.356065	2.356065
O	2.356065	0.000000	2.356065
O	2.356065	2.356065	0.000000
P	0.000000	0.000000	0.000000
K	2.356065	2.356065	7.068196
O	0.000000	2.356065	7.068196
O	2.356065	0.000000	7.068196
O	2.356065	2.356065	4.712131
P	0.000000	0.000000	4.712131
K	2.356065	7.068196	2.356065
O	0.000000	7.068196	2.356065
O	2.356065	4.712131	2.356065
O	2.356065	7.068196	0.000000
P	0.000000	4.712131	0.000000
K	2.356065	7.068196	7.068196
O	0.000000	7.068196	7.068196
O	2.356065	4.712131	7.068196
O	2.356065	7.068196	4.712131
P	0.000000	4.712131	4.712131
K	7.068196	2.356065	2.356065
O	4.712131	2.356065	2.356065
O	7.068196	0.000000	2.356065
O	7.068196	2.356065	0.000000
P	4.712131	0.000000	0.000000
K	7.068196	2.356065	7.068196
O	4.712131	2.356065	7.068196
O	7.068196	0.000000	7.068196
O	7.068196	2.356065	4.712131
P	4.712131	0.000000	4.712131
K	7.068196	7.068196	2.356065
O	4.712131	7.068196	2.356065
O	7.068196	4.712131	2.356065
O	7.068196	7.068196	0.000000
P	4.712131	4.712131	0.000000
K	7.068196	7.068196	7.068196
O	4.712131	7.068196	7.068196
O	7.068196	4.712131	7.068196
O	7.068196	7.068196	4.712131
P	4.712131	4.712131	4.712131
