112

Bi	0.000000	0.000000	0.000000
Bi	2.511210	-2.512136	-2.512136
O	3.915168	-1.107008	-1.107008
O	-1.107251	1.107008	-3.917264
O	1.107251	-1.107008	-3.917264
O	1.403958	1.405128	-1.405128
O	6.129670	1.107008	-1.107008
O	1.403958	3.619143	-3.619143
O	3.618461	3.619143	-1.405128
O	3.618461	1.405128	-3.619143
Pu	-1.255605	-1.256068	-3.768204
Pu	3.766814	1.256068	-1.256068
Pu	6.278024	-1.256068	-1.256068
Pu	1.255605	1.256068	-3.768204
Bi	5.022419	5.024271	0.000000
Bi	7.533629	2.512136	-2.512136
O	8.937587	3.917264	-1.107008
O	3.915168	6.131279	-3.917264
O	6.129670	3.917264	-3.917264
O	6.426377	6.429400	-1.405128
O	11.152089	6.131279	-1.107008
O	6.426377	8.643415	-3.619143
O	8.640880	8.643415	-1.405128
O	8.640880	6.429400	-3.619143
Pu	3.766814	3.768204	-3.768204
Pu	8.789233	6.280339	-1.256068
Pu	11.300443	3.768204	-1.256068
Pu	6.278024	6.280339	-3.768204
Bi	-5.022419	0.000000	-5.024271
Bi	-2.511210	-2.512136	-7.536407
O	-1.107251	-1.107008	-6.131279
O	-6.129670	1.107008	-8.941535
O	-3.915168	-1.107008	-8.941535
O	-3.618461	1.405128	-6.429400
O	1.107251	1.107008	-6.131279
O	-3.618461	3.619143	-8.643415
O	-1.403958	3.619143	-6.429400
O	-1.403958	1.405128	-8.643415
Pu	-6.278024	-1.256068	-8.792475
Pu	-1.255605	1.256068	-6.280339
Pu	1.255605	-1.256068	-6.280339
Pu	-3.766814	1.256068	-8.792475
Bi	0.000000	5.024271	-5.024271
Bi	2.511210	2.512136	-7.536407
O	3.915168	3.917264	-6.131279
O	-1.107251	6.131279	-8.941535
O	1.107251	3.917264	-8.941535
O	1.403958	6.429400	-6.429400
O	6.129670	6.131279	-6.131279
O	1.403958	8.643415	-8.643415
O	3.618461	8.643415	-6.429400
O	3.618461	6.429400	-8.643415
Pu	-1.255605	3.768204	-8.792475
Pu	3.766814	6.280339	-6.280339
Pu	6.278024	3.768204	-6.280339
Pu	1.255605	6.280339	-8.792475
Bi	5.022419	-5.024271	0.000000
Bi	7.533629	-7.536407	-2.512136
O	8.937587	-6.131279	-1.107008
O	3.915168	-3.917264	-3.917264
O	6.129670	-6.131279	-3.917264
O	6.426377	-3.619143	-1.405128
O	11.152089	-3.917264	-1.107008
O	6.426377	-1.405128	-3.619143
O	8.640880	-1.405128	-1.405128
O	8.640880	-3.619143	-3.619143
Pu	3.766814	-6.280339	-3.768204
Pu	8.789233	-3.768204	-1.256068
Pu	11.300443	-6.280339	-1.256068
Pu	6.278024	-3.768204	-3.768204
Bi	10.044838	0.000000	0.000000
Bi	12.556048	-2.512136	-2.512136
O	13.960006	-1.107008	-1.107008
O	8.937587	1.107008	-3.917264
O	11.152089	-1.107008	-3.917264
O	11.448797	1.405128	-1.405128
O	16.174509	1.107008	-1.107008
O	11.448797	3.619143	-3.619143
O	13.663299	3.619143	-1.405128
O	13.663299	1.405128	-3.619143
Pu	8.789233	-1.256068	-3.768204
Pu	13.811653	1.256068	-1.256068
Pu	16.322862	-1.256068	-1.256068
Pu	11.300443	1.256068	-3.768204
Bi	0.000000	-5.024271	-5.024271
Bi	2.511210	-7.536407	-7.536407
O	3.915168	-6.131279	-6.131279
O	-1.107251	-3.917264	-8.941535
O	1.107251	-6.131279	-8.941535
O	1.403958	-3.619143	-6.429400
O	6.129670	-3.917264	-6.131279
O	1.403958	-1.405128	-8.643415
O	3.618461	-1.405128	-6.429400
O	3.618461	-3.619143	-8.643415
Pu	-1.255605	-6.280339	-8.792475
Pu	3.766814	-3.768204	-6.280339
Pu	6.278024	-6.280339	-6.280339
Pu	1.255605	-3.768204	-8.792475
Bi	5.022419	0.000000	-5.024271
Bi	7.533629	-2.512136	-7.536407
O	8.937587	-1.107008	-6.131279
O	3.915168	1.107008	-8.941535
O	6.129670	-1.107008	-8.941535
O	6.426377	1.405128	-6.429400
O	11.152089	1.107008	-6.131279
O	6.426377	3.619143	-8.643415
O	8.640880	3.619143	-6.429400
O	8.640880	1.405128	-8.643415
Pu	3.766814	-1.256068	-8.792475
Pu	8.789233	1.256068	-6.280339
Pu	11.300443	-1.256068	-6.280339
Pu	6.278024	1.256068	-8.792475
