40

Na	1.989994	1.989994	1.989994
O	0.000000	1.989994	1.989994
O	1.989994	0.000000	1.989994
O	1.989994	1.989994	0.000000
Os	0.000000	0.000000	0.000000
Na	1.989994	1.989994	5.969981
O	0.000000	1.989994	5.969981
O	1.989994	0.000000	5.969981
O	1.989994	1.989994	3.979987
Os	0.000000	0.000000	3.979987
Na	1.989994	5.969981	1.989994
O	0.000000	5.969981	1.989994
O	1.989994	3.979987	1.989994
O	1.989994	5.969981	0.000000
Os	0.000000	3.979987	0.000000
Na	1.989994	5.969981	5.969981
O	0.000000	5.969981	5.969981
O	1.989994	3.979987	5.969981
O	1.989994	5.969981	3.979987
Os	0.000000	3.979987	3.979987
Na	5.969981	1.989994	1.989994
O	3.979987	1.989994	1.989994
O	5.969981	0.000000	1.989994
O	5.969981	1.989994	0.000000
Os	3.979987	0.000000	0.000000
Na	5.969981	1.989994	5.969981
O	3.979987	1.989994	5.969981
O	5.969981	0.000000	5.969981
O	5.969981	1.989994	3.979987
Os	3.979987	0.000000	3.979987
Na	5.969981	5.969981	1.989994
O	3.979987	5.969981	1.989994
O	5.969981	3.979987	1.989994
O	5.969981	5.969981	0.000000
Os	3.979987	3.979987	0.000000
Na	5.969981	5.969981	5.969981
O	3.979987	5.969981	5.969981
O	5.969981	3.979987	5.969981
O	5.969981	5.969981	3.979987
Os	3.979987	3.979987	3.979987
