40

O	2.808758	2.808758	2.808758
Rb	0.000000	2.808758	2.808758
Rb	2.808758	2.808758	0.000000
Rb	2.808758	0.000000	2.808758
Au	0.000000	0.000000	0.000000
O	2.808758	2.808758	8.426274
Rb	0.000000	2.808758	8.426274
Rb	2.808758	2.808758	5.617516
Rb	2.808758	0.000000	8.426274
Au	0.000000	0.000000	5.617516
O	2.808758	8.426274	2.808758
Rb	0.000000	8.426274	2.808758
Rb	2.808758	8.426274	0.000000
Rb	2.808758	5.617516	2.808758
Au	0.000000	5.617516	0.000000
O	2.808758	8.426274	8.426274
Rb	0.000000	8.426274	8.426274
Rb	2.808758	8.426274	5.617516
Rb	2.808758	5.617516	8.426274
Au	0.000000	5.617516	5.617516
O	8.426274	2.808758	2.808758
Rb	5.617516	2.808758	2.808758
Rb	8.426274	2.808758	0.000000
Rb	8.426274	0.000000	2.808758
Au	5.617516	0.000000	0.000000
O	8.426274	2.808758	8.426274
Rb	5.617516	2.808758	8.426274
Rb	8.426274	2.808758	5.617516
Rb	8.426274	0.000000	8.426274
Au	5.617516	0.000000	5.617516
O	8.426274	8.426274	2.808758
Rb	5.617516	8.426274	2.808758
Rb	8.426274	8.426274	0.000000
Rb	8.426274	5.617516	2.808758
Au	5.617516	5.617516	0.000000
O	8.426274	8.426274	8.426274
Rb	5.617516	8.426274	8.426274
Rb	8.426274	8.426274	5.617516
Rb	8.426274	5.617516	8.426274
Au	5.617516	5.617516	5.617516
