40

B	0.000000	0.000000	0.000000
O	0.000000	1.951925	1.951925
O	1.951925	0.000000	1.951925
O	1.951925	1.951925	0.000000
Ti	1.951925	1.951925	1.951925
B	0.000000	0.000000	3.903851
O	0.000000	1.951925	5.855776
O	1.951925	0.000000	5.855776
O	1.951925	1.951925	3.903851
Ti	1.951925	1.951925	5.855776
B	0.000000	3.903851	0.000000
O	0.000000	5.855776	1.951925
O	1.951925	3.903851	1.951925
O	1.951925	5.855776	0.000000
Ti	1.951925	5.855776	1.951925
B	0.000000	3.903851	3.903851
O	0.000000	5.855776	5.855776
O	1.951925	3.903851	5.855776
O	1.951925	5.855776	3.903851
Ti	1.951925	5.855776	5.855776
B	3.903851	0.000000	0.000000
O	3.903851	1.951925	1.951925
O	5.855776	0.000000	1.951925
O	5.855776	1.951925	0.000000
Ti	5.855776	1.951925	1.951925
B	3.903851	0.000000	3.903851
O	3.903851	1.951925	5.855776
O	5.855776	0.000000	5.855776
O	5.855776	1.951925	3.903851
Ti	5.855776	1.951925	5.855776
B	3.903851	3.903851	0.000000
O	3.903851	5.855776	1.951925
O	5.855776	3.903851	1.951925
O	5.855776	5.855776	0.000000
Ti	5.855776	5.855776	1.951925
B	3.903851	3.903851	3.903851
O	3.903851	5.855776	5.855776
O	5.855776	3.903851	5.855776
O	5.855776	5.855776	3.903851
Ti	5.855776	5.855776	5.855776
