112

Cu	0.000000	0.000000	0.000000
Cu	2.124210	-2.125425	-2.125425
O	3.220434	-1.027366	-1.027366
O	-1.027985	1.027366	-3.223484
O	1.027985	-1.027366	-3.223484
O	1.096224	1.098059	-1.098059
O	5.276405	1.027366	-1.027366
O	1.096224	3.152791	-3.152791
O	3.152195	3.152791	-1.098059
O	3.152195	1.098059	-3.152791
Re	-1.062105	-1.062712	-3.188137
Re	3.186314	1.062712	-1.062712
Re	5.310524	-1.062712	-1.062712
Re	1.062105	1.062712	-3.188137
Cu	4.248419	4.250850	0.000000
Cu	6.372629	2.125425	-2.125425
O	7.468853	3.223484	-1.027366
O	3.220434	5.278216	-3.223484
O	5.276405	3.223484	-3.223484
O	5.344643	5.348909	-1.098059
O	9.524824	5.278216	-1.027366
O	5.344643	7.403641	-3.152791
O	7.400614	7.403641	-1.098059
O	7.400614	5.348909	-3.152791
Re	3.186314	3.188137	-3.188137
Re	7.434734	5.313562	-1.062712
Re	9.558943	3.188137	-1.062712
Re	5.310524	5.313562	-3.188137
Cu	-4.248419	0.000000	-4.250850
Cu	-2.124210	-2.125425	-6.376275
O	-1.027985	-1.027366	-5.278216
O	-5.276405	1.027366	-7.474333
O	-3.220434	-1.027366	-7.474333
O	-3.152195	1.098059	-5.348909
O	1.027985	1.027366	-5.278216
O	-3.152195	3.152791	-7.403641
O	-1.096224	3.152791	-5.348909
O	-1.096224	1.098059	-7.403641
Re	-5.310524	-1.062712	-7.438987
Re	-1.062105	1.062712	-5.313562
Re	1.062105	-1.062712	-5.313562
Re	-3.186314	1.062712	-7.438987
Cu	0.000000	4.250850	-4.250850
Cu	2.124210	2.125425	-6.376275
O	3.220434	3.223484	-5.278216
O	-1.027985	5.278216	-7.474333
O	1.027985	3.223484	-7.474333
O	1.096224	5.348909	-5.348909
O	5.276405	5.278216	-5.278216
O	1.096224	7.403641	-7.403641
O	3.152195	7.403641	-5.348909
O	3.152195	5.348909	-7.403641
Re	-1.062105	3.188137	-7.438987
Re	3.186314	5.313562	-5.313562
Re	5.310524	3.188137	-5.313562
Re	1.062105	5.313562	-7.438987
Cu	4.248419	-4.250850	0.000000
Cu	6.372629	-6.376275	-2.125425
O	7.468853	-5.278216	-1.027366
O	3.220434	-3.223484	-3.223484
O	5.276405	-5.278216	-3.223484
O	5.344643	-3.152791	-1.098059
O	9.524824	-3.223484	-1.027366
O	5.344643	-1.098059	-3.152791
O	7.400614	-1.098059	-1.098059
O	7.400614	-3.152791	-3.152791
Re	3.186314	-5.313562	-3.188137
Re	7.434734	-3.188137	-1.062712
Re	9.558943	-5.313562	-1.062712
Re	5.310524	-3.188137	-3.188137
Cu	8.496839	0.000000	0.000000
Cu	10.621048	-2.125425	-2.125425
O	11.717272	-1.027366	-1.027366
O	7.468853	1.027366	-3.223484
O	9.524824	-1.027366	-3.223484
O	9.593063	1.098059	-1.098059
O	13.773243	1.027366	-1.027366
O	9.593063	3.152791	-3.152791
O	11.649034	3.152791	-1.098059
O	11.649034	1.098059	-3.152791
Re	7.434734	-1.062712	-3.188137
Re	11.683153	1.062712	-1.062712
Re	13.807363	-1.062712	-1.062712
Re	9.558943	1.062712	-3.188137
Cu	0.000000	-4.250850	-4.250850
Cu	2.124210	-6.376275	-6.376275
O	3.220434	-5.278216	-5.278216
O	-1.027985	-3.223484	-7.474333
O	1.027985	-5.278216	-7.474333
O	1.096224	-3.152791	-5.348909
O	5.276405	-3.223484	-5.278216
O	1.096224	-1.098059	-7.403641
O	3.152195	-1.098059	-5.348909
O	3.152195	-3.152791	-7.403641
Re	-1.062105	-5.313562	-7.438987
Re	3.186314	-3.188137	-5.313562
Re	5.310524	-5.313562	-5.313562
Re	1.062105	-3.188137	-7.438987
Cu	4.248419	0.000000	-4.250850
Cu	6.372629	-2.125425	-6.376275
O	7.468853	-1.027366	-5.278216
O	3.220434	1.027366	-7.474333
O	5.276405	-1.027366	-7.474333
O	5.344643	1.098059	-5.348909
O	9.524824	1.027366	-5.278216
O	5.344643	3.152791	-7.403641
O	7.400614	3.152791	-5.348909
O	7.400614	1.098059	-7.403641
Re	3.186314	-1.062712	-7.438987
Re	7.434734	1.062712	-5.313562
Re	9.558943	-1.062712	-5.313562
Re	5.310524	1.062712	-7.438987
