112

O	1.161621	1.162870	-1.162870
O	3.589899	-1.266299	-1.266299
O	-1.266656	1.266299	-3.592039
O	1.266656	-1.266299	-3.592039
O	1.161621	3.695469	-3.695469
O	3.694944	1.162870	-3.695469
O	3.694944	3.695469	-1.162870
O	6.123222	1.266299	-1.266299
Pd	0.000000	0.000000	0.000000
Pd	2.428278	-2.429169	-2.429169
Sr	-1.214144	-1.214585	-3.643754
Sr	6.070699	-1.214585	-1.214585
Sr	3.642422	1.214585	-1.214585
Sr	1.214144	1.214585	-3.643754
O	6.018184	6.021212	-1.162870
O	8.446462	3.592043	-1.266299
O	3.589907	6.124642	-3.592039
O	6.123219	3.592043	-3.592039
O	6.018184	8.553811	-3.695469
O	8.551507	6.021212	-3.695469
O	8.551507	8.553811	-1.162870
O	10.979785	6.124642	-1.266299
Pd	4.856563	4.858342	0.000000
Pd	7.284841	2.429173	-2.429169
Sr	3.642419	3.643758	-3.643754
Sr	10.927262	3.643758	-1.214585
Sr	8.498985	6.072927	-1.214585
Sr	6.070707	6.072927	-3.643754
O	-3.694942	1.162870	-6.021212
O	-1.266664	-1.266299	-6.124642
O	-6.123219	1.266299	-8.450382
O	-3.589907	-1.266299	-8.450382
O	-3.694942	3.695469	-8.553811
O	-1.161619	1.162870	-8.553811
O	-1.161619	3.695469	-6.021212
O	1.266659	1.266299	-6.124642
Pd	-4.856563	0.000000	-4.858342
Pd	-2.428285	-2.429169	-7.287512
Sr	-6.070707	-1.214585	-8.502096
Sr	1.214136	-1.214585	-6.072927
Sr	-1.214141	1.214585	-6.072927
Sr	-3.642419	1.214585	-8.502096
O	1.161621	6.021212	-6.021212
O	3.589899	3.592043	-6.124642
O	-1.266656	6.124642	-8.450382
O	1.266656	3.592043	-8.450382
O	1.161621	8.553811	-8.553811
O	3.694944	6.021212	-8.553811
O	3.694944	8.553811	-6.021212
O	6.123222	6.124642	-6.124642
Pd	0.000000	4.858342	-4.858342
Pd	2.428278	2.429173	-7.287512
Sr	-1.214144	3.643758	-8.502096
Sr	6.070699	3.643758	-6.072927
Sr	3.642422	6.072927	-6.072927
Sr	1.214144	6.072927	-8.502096
O	6.018184	-3.695472	-1.162870
O	8.446462	-6.124642	-1.266299
O	3.589907	-3.592043	-3.592039
O	6.123219	-6.124642	-3.592039
O	6.018184	-1.162874	-3.695469
O	8.551507	-3.695472	-3.695469
O	8.551507	-1.162874	-1.162870
O	10.979785	-3.592043	-1.266299
Pd	4.856563	-4.858342	0.000000
Pd	7.284841	-7.287512	-2.429169
Sr	3.642419	-6.072927	-3.643754
Sr	10.927262	-6.072927	-1.214585
Sr	8.498985	-3.643758	-1.214585
Sr	6.070707	-3.643758	-3.643754
O	10.874747	1.162870	-1.162870
O	13.303025	-1.266299	-1.266299
O	8.446470	1.266299	-3.592039
O	10.979782	-1.266299	-3.592039
O	10.874747	3.695469	-3.695469
O	13.408070	1.162870	-3.695469
O	13.408070	3.695469	-1.162870
O	15.836348	1.266299	-1.266299
Pd	9.713126	0.000000	0.000000
Pd	12.141404	-2.429169	-2.429169
Sr	8.498982	-1.214585	-3.643754
Sr	15.783825	-1.214585	-1.214585
Sr	13.355547	1.214585	-1.214585
Sr	10.927270	1.214585	-3.643754
O	1.161621	-3.695472	-6.021212
O	3.589899	-6.124642	-6.124642
O	-1.266656	-3.592043	-8.450382
O	1.266656	-6.124642	-8.450382
O	1.161621	-1.162874	-8.553811
O	3.694944	-3.695472	-8.553811
O	3.694944	-1.162874	-6.021212
O	6.123222	-3.592043	-6.124642
Pd	0.000000	-4.858342	-4.858342
Pd	2.428278	-7.287512	-7.287512
Sr	-1.214144	-6.072927	-8.502096
Sr	6.070699	-6.072927	-6.072927
Sr	3.642422	-3.643758	-6.072927
Sr	1.214144	-3.643758	-8.502096
O	6.018184	1.162870	-6.021212
O	8.446462	-1.266299	-6.124642
O	3.589907	1.266299	-8.450382
O	6.123219	-1.266299	-8.450382
O	6.018184	3.695469	-8.553811
O	8.551507	1.162870	-8.553811
O	8.551507	3.695469	-6.021212
O	10.979785	1.266299	-6.124642
Pd	4.856563	0.000000	-4.858342
Pd	7.284841	-2.429169	-7.287512
Sr	3.642419	-1.214585	-8.502096
Sr	10.927262	-1.214585	-6.072927
Sr	8.498985	1.214585	-6.072927
Sr	6.070707	1.214585	-8.502096
