40

Ir	1.995830	1.995830	1.995830
O	1.995830	1.995830	0.000000
O	0.000000	1.995830	1.995830
O	1.995830	0.000000	1.995830
Pb	0.000000	0.000000	0.000000
Ir	1.995830	1.995830	5.987499
O	1.995830	1.995830	3.991669
O	0.000000	1.995830	5.987499
O	1.995830	0.000000	5.987499
Pb	0.000000	0.000000	3.991669
Ir	1.995830	5.987499	1.995830
O	1.995830	5.987499	0.000000
O	0.000000	5.987499	1.995830
O	1.995830	3.991669	1.995830
Pb	0.000000	3.991669	0.000000
Ir	1.995830	5.987499	5.987499
O	1.995830	5.987499	3.991669
O	0.000000	5.987499	5.987499
O	1.995830	3.991669	5.987499
Pb	0.000000	3.991669	3.991669
Ir	5.987499	1.995830	1.995830
O	5.987499	1.995830	0.000000
O	3.991669	1.995830	1.995830
O	5.987499	0.000000	1.995830
Pb	3.991669	0.000000	0.000000
Ir	5.987499	1.995830	5.987499
O	5.987499	1.995830	3.991669
O	3.991669	1.995830	5.987499
O	5.987499	0.000000	5.987499
Pb	3.991669	0.000000	3.991669
Ir	5.987499	5.987499	1.995830
O	5.987499	5.987499	0.000000
O	3.991669	5.987499	1.995830
O	5.987499	3.991669	1.995830
Pb	3.991669	3.991669	0.000000
Ir	5.987499	5.987499	5.987499
O	5.987499	5.987499	3.991669
O	3.991669	5.987499	5.987499
O	5.987499	3.991669	5.987499
Pb	3.991669	3.991669	3.991669
