40

Cl	1.969317	1.969317	1.969317
Nb	0.000000	0.000000	0.000000
O	0.000000	1.969317	1.969317
O	1.969317	0.000000	1.969317
O	1.969317	1.969317	0.000000
Cl	1.969317	1.969317	5.907952
Nb	0.000000	0.000000	3.938634
O	0.000000	1.969317	5.907952
O	1.969317	0.000000	5.907952
O	1.969317	1.969317	3.938634
Cl	1.969317	5.907952	1.969317
Nb	0.000000	3.938634	0.000000
O	0.000000	5.907952	1.969317
O	1.969317	3.938634	1.969317
O	1.969317	5.907952	0.000000
Cl	1.969317	5.907952	5.907952
Nb	0.000000	3.938634	3.938634
O	0.000000	5.907952	5.907952
O	1.969317	3.938634	5.907952
O	1.969317	5.907952	3.938634
Cl	5.907952	1.969317	1.969317
Nb	3.938634	0.000000	0.000000
O	3.938634	1.969317	1.969317
O	5.907952	0.000000	1.969317
O	5.907952	1.969317	0.000000
Cl	5.907952	1.969317	5.907952
Nb	3.938634	0.000000	3.938634
O	3.938634	1.969317	5.907952
O	5.907952	0.000000	5.907952
O	5.907952	1.969317	3.938634
Cl	5.907952	5.907952	1.969317
Nb	3.938634	3.938634	0.000000
O	3.938634	5.907952	1.969317
O	5.907952	3.938634	1.969317
O	5.907952	5.907952	0.000000
Cl	5.907952	5.907952	5.907952
Nb	3.938634	3.938634	3.938634
O	3.938634	5.907952	5.907952
O	5.907952	3.938634	5.907952
O	5.907952	5.907952	3.938634
