112

Ba	0.000000	0.000000	0.000000
Ba	2.391166	-2.392146	-2.392146
O	3.855202	-0.926639	-0.926639
O	-0.927130	0.926639	-3.857652
O	0.927130	-0.926639	-3.857652
O	1.464036	1.465507	-1.465507
O	5.709461	0.926639	-0.926639
O	1.464036	3.318785	-3.318785
O	3.318295	3.318785	-1.465507
O	3.318295	1.465507	-3.318785
W	-1.195583	-1.196073	-3.588218
W	3.586749	1.196073	-1.196073
W	5.977915	-1.196073	-1.196073
W	1.195583	1.196073	-3.588218
Ba	4.782332	4.784291	0.000000
Ba	7.173498	2.392146	-2.392146
O	8.637534	3.857652	-0.926639
O	3.855202	5.710930	-3.857652
O	5.709461	3.857652	-3.857652
O	6.246368	6.249798	-1.465507
O	10.491793	5.710930	-0.926639
O	6.246368	8.103076	-3.318785
O	8.100627	8.103076	-1.465507
O	8.100627	6.249798	-3.318785
W	3.586749	3.588218	-3.588218
W	8.369081	5.980364	-1.196073
W	10.760246	3.588218	-1.196073
W	5.977915	5.980364	-3.588218
Ba	-4.782332	0.000000	-4.784291
Ba	-2.391166	-2.392146	-7.176437
O	-0.927130	-0.926639	-5.710930
O	-5.709461	0.926639	-8.641943
O	-3.855202	-0.926639	-8.641943
O	-3.318295	1.465507	-6.249798
O	0.927130	0.926639	-5.710930
O	-3.318295	3.318785	-8.103076
O	-1.464036	3.318785	-6.249798
O	-1.464036	1.465507	-8.103076
W	-5.977915	-1.196073	-8.372509
W	-1.195583	1.196073	-5.980364
W	1.195583	-1.196073	-5.980364
W	-3.586749	1.196073	-8.372509
Ba	0.000000	4.784291	-4.784291
Ba	2.391166	2.392146	-7.176437
O	3.855202	3.857652	-5.710930
O	-0.927130	5.710930	-8.641943
O	0.927130	3.857652	-8.641943
O	1.464036	6.249798	-6.249798
O	5.709461	5.710930	-5.710930
O	1.464036	8.103076	-8.103076
O	3.318295	8.103076	-6.249798
O	3.318295	6.249798	-8.103076
W	-1.195583	3.588218	-8.372509
W	3.586749	5.980364	-5.980364
W	5.977915	3.588218	-5.980364
W	1.195583	5.980364	-8.372509
Ba	4.782332	-4.784291	0.000000
Ba	7.173498	-7.176437	-2.392146
O	8.637534	-5.710930	-0.926639
O	3.855202	-3.857652	-3.857652
O	5.709461	-5.710930	-3.857652
O	6.246368	-3.318785	-1.465507
O	10.491793	-3.857652	-0.926639
O	6.246368	-1.465507	-3.318785
O	8.100627	-1.465507	-1.465507
O	8.100627	-3.318785	-3.318785
W	3.586749	-5.980364	-3.588218
W	8.369081	-3.588218	-1.196073
W	10.760246	-5.980364	-1.196073
W	5.977915	-3.588218	-3.588218
Ba	9.564663	0.000000	0.000000
Ba	11.955829	-2.392146	-2.392146
O	13.419866	-0.926639	-0.926639
O	8.637534	0.926639	-3.857652
O	10.491793	-0.926639	-3.857652
O	11.028700	1.465507	-1.465507
O	15.274125	0.926639	-0.926639
O	11.028700	3.318785	-3.318785
O	12.882959	3.318785	-1.465507
O	12.882959	1.465507	-3.318785
W	8.369081	-1.196073	-3.588218
W	13.151412	1.196073	-1.196073
W	15.542578	-1.196073	-1.196073
W	10.760246	1.196073	-3.588218
Ba	0.000000	-4.784291	-4.784291
Ba	2.391166	-7.176437	-7.176437
O	3.855202	-5.710930	-5.710930
O	-0.927130	-3.857652	-8.641943
O	0.927130	-5.710930	-8.641943
O	1.464036	-3.318785	-6.249798
O	5.709461	-3.857652	-5.710930
O	1.464036	-1.465507	-8.103076
O	3.318295	-1.465507	-6.249798
O	3.318295	-3.318785	-8.103076
W	-1.195583	-5.980364	-8.372509
W	3.586749	-3.588218	-5.980364
W	5.977915	-5.980364	-5.980364
W	1.195583	-3.588218	-8.372509
Ba	4.782332	0.000000	-4.784291
Ba	7.173498	-2.392146	-7.176437
O	8.637534	-0.926639	-5.710930
O	3.855202	0.926639	-8.641943
O	5.709461	-0.926639	-8.641943
O	6.246368	1.465507	-6.249798
O	10.491793	0.926639	-5.710930
O	6.246368	3.318785	-8.103076
O	8.100627	3.318785	-6.249798
O	8.100627	1.465507	-8.103076
W	3.586749	-1.196073	-8.372509
W	8.369081	1.196073	-5.980364
W	10.760246	-1.196073	-5.980364
W	5.977915	1.196073	-8.372509
