40

Be	0.000000	0.000000	0.000000
O	2.021090	0.000000	2.021090
O	0.000000	2.021090	2.021090
O	2.021090	2.021090	0.000000
Yb	2.021090	2.021090	2.021090
Be	0.000000	0.000000	4.042194
O	2.021090	0.000000	6.063284
O	0.000000	2.021090	6.063284
O	2.021090	2.021090	4.042194
Yb	2.021090	2.021090	6.063284
Be	0.000000	4.042194	0.000000
O	2.021090	4.042194	2.021090
O	0.000000	6.063284	2.021090
O	2.021090	6.063284	0.000000
Yb	2.021090	6.063284	2.021090
Be	0.000000	4.042194	4.042194
O	2.021090	4.042194	6.063284
O	0.000000	6.063284	6.063284
O	2.021090	6.063284	4.042194
Yb	2.021090	6.063284	6.063284
Be	4.042194	0.000000	0.000000
O	6.063284	0.000000	2.021090
O	4.042194	2.021090	2.021090
O	6.063284	2.021090	0.000000
Yb	6.063284	2.021090	2.021090
Be	4.042194	0.000000	4.042194
O	6.063284	0.000000	6.063284
O	4.042194	2.021090	6.063284
O	6.063284	2.021090	4.042194
Yb	6.063284	2.021090	6.063284
Be	4.042194	4.042194	0.000000
O	6.063284	4.042194	2.021090
O	4.042194	6.063284	2.021090
O	6.063284	6.063284	0.000000
Yb	6.063284	6.063284	2.021090
Be	4.042194	4.042194	4.042194
O	6.063284	4.042194	6.063284
O	4.042194	6.063284	6.063284
O	6.063284	6.063284	4.042194
Yb	6.063284	6.063284	6.063284
