40

Eu	0.000000	0.000000	0.000000
K	2.117109	2.117109	2.117109
O	2.117109	2.117109	0.000000
O	2.117109	0.000000	2.117109
O	0.000000	2.117109	2.117109
Eu	0.000000	0.000000	4.234218
K	2.117109	2.117109	6.351327
O	2.117109	2.117109	4.234218
O	2.117109	0.000000	6.351327
O	0.000000	2.117109	6.351327
Eu	0.000000	4.234218	0.000000
K	2.117109	6.351327	2.117109
O	2.117109	6.351327	0.000000
O	2.117109	4.234218	2.117109
O	0.000000	6.351327	2.117109
Eu	0.000000	4.234218	4.234218
K	2.117109	6.351327	6.351327
O	2.117109	6.351327	4.234218
O	2.117109	4.234218	6.351327
O	0.000000	6.351327	6.351327
Eu	4.234218	0.000000	0.000000
K	6.351327	2.117109	2.117109
O	6.351327	2.117109	0.000000
O	6.351327	0.000000	2.117109
O	4.234218	2.117109	2.117109
Eu	4.234218	0.000000	4.234218
K	6.351327	2.117109	6.351327
O	6.351327	2.117109	4.234218
O	6.351327	0.000000	6.351327
O	4.234218	2.117109	6.351327
Eu	4.234218	4.234218	0.000000
K	6.351327	6.351327	2.117109
O	6.351327	6.351327	0.000000
O	6.351327	4.234218	2.117109
O	4.234218	6.351327	2.117109
Eu	4.234218	4.234218	4.234218
K	6.351327	6.351327	6.351327
O	6.351327	6.351327	4.234218
O	6.351327	4.234218	6.351327
O	4.234218	6.351327	6.351327
