40

Ba	0.000000	0.000000	0.000000
Hg	2.157758	2.157758	2.157758
O	0.000000	2.157758	2.157758
O	2.157758	0.000000	2.157758
O	2.157758	2.157758	0.000000
Ba	0.000000	0.000000	4.315517
Hg	2.157758	2.157758	6.473275
O	0.000000	2.157758	6.473275
O	2.157758	0.000000	6.473275
O	2.157758	2.157758	4.315517
Ba	0.000000	4.315517	0.000000
Hg	2.157758	6.473275	2.157758
O	0.000000	6.473275	2.157758
O	2.157758	4.315517	2.157758
O	2.157758	6.473275	0.000000
Ba	0.000000	4.315517	4.315517
Hg	2.157758	6.473275	6.473275
O	0.000000	6.473275	6.473275
O	2.157758	4.315517	6.473275
O	2.157758	6.473275	4.315517
Ba	4.315517	0.000000	0.000000
Hg	6.473275	2.157758	2.157758
O	4.315517	2.157758	2.157758
O	6.473275	0.000000	2.157758
O	6.473275	2.157758	0.000000
Ba	4.315517	0.000000	4.315517
Hg	6.473275	2.157758	6.473275
O	4.315517	2.157758	6.473275
O	6.473275	0.000000	6.473275
O	6.473275	2.157758	4.315517
Ba	4.315517	4.315517	0.000000
Hg	6.473275	6.473275	2.157758
O	4.315517	6.473275	2.157758
O	6.473275	4.315517	2.157758
O	6.473275	6.473275	0.000000
Ba	4.315517	4.315517	4.315517
Hg	6.473275	6.473275	6.473275
O	4.315517	6.473275	6.473275
O	6.473275	4.315517	6.473275
O	6.473275	6.473275	4.315517
