40

As	0.000000	0.000000	0.000000
N	1.778073	1.778073	1.778073
O	0.000000	1.778073	1.778073
O	1.778073	0.000000	1.778073
O	1.778073	1.778073	0.000000
As	0.000000	0.000000	3.556146
N	1.778073	1.778073	5.334219
O	0.000000	1.778073	5.334219
O	1.778073	0.000000	5.334219
O	1.778073	1.778073	3.556146
As	0.000000	3.556146	0.000000
N	1.778073	5.334219	1.778073
O	0.000000	5.334219	1.778073
O	1.778073	3.556146	1.778073
O	1.778073	5.334219	0.000000
As	0.000000	3.556146	3.556146
N	1.778073	5.334219	5.334219
O	0.000000	5.334219	5.334219
O	1.778073	3.556146	5.334219
O	1.778073	5.334219	3.556146
As	3.556146	0.000000	0.000000
N	5.334219	1.778073	1.778073
O	3.556146	1.778073	1.778073
O	5.334219	0.000000	1.778073
O	5.334219	1.778073	0.000000
As	3.556146	0.000000	3.556146
N	5.334219	1.778073	5.334219
O	3.556146	1.778073	5.334219
O	5.334219	0.000000	5.334219
O	5.334219	1.778073	3.556146
As	3.556146	3.556146	0.000000
N	5.334219	5.334219	1.778073
O	3.556146	5.334219	1.778073
O	5.334219	3.556146	1.778073
O	5.334219	5.334219	0.000000
As	3.556146	3.556146	3.556146
N	5.334219	5.334219	5.334219
O	3.556146	5.334219	5.334219
O	5.334219	3.556146	5.334219
O	5.334219	5.334219	3.556146
