40

O	0.000000	1.784791	1.784791
O	1.784791	0.000000	1.784791
O	1.784791	1.784791	0.000000
P	1.784791	1.784791	1.784791
Zn	0.000000	0.000000	0.000000
O	0.000000	1.784791	5.354374
O	1.784791	0.000000	5.354374
O	1.784791	1.784791	3.569583
P	1.784791	1.784791	5.354374
Zn	0.000000	0.000000	3.569583
O	0.000000	5.354374	1.784791
O	1.784791	3.569583	1.784791
O	1.784791	5.354374	0.000000
P	1.784791	5.354374	1.784791
Zn	0.000000	3.569583	0.000000
O	0.000000	5.354374	5.354374
O	1.784791	3.569583	5.354374
O	1.784791	5.354374	3.569583
P	1.784791	5.354374	5.354374
Zn	0.000000	3.569583	3.569583
O	3.569583	1.784791	1.784791
O	5.354374	0.000000	1.784791
O	5.354374	1.784791	0.000000
P	5.354374	1.784791	1.784791
Zn	3.569583	0.000000	0.000000
O	3.569583	1.784791	5.354374
O	5.354374	0.000000	5.354374
O	5.354374	1.784791	3.569583
P	5.354374	1.784791	5.354374
Zn	3.569583	0.000000	3.569583
O	3.569583	5.354374	1.784791
O	5.354374	3.569583	1.784791
O	5.354374	5.354374	0.000000
P	5.354374	5.354374	1.784791
Zn	3.569583	3.569583	0.000000
O	3.569583	5.354374	5.354374
O	5.354374	3.569583	5.354374
O	5.354374	5.354374	3.569583
P	5.354374	5.354374	5.354374
Zn	3.569583	3.569583	3.569583
