40

Ni	0.000000	0.000000	0.000000
O	0.000000	1.986436	1.986436
O	1.986436	0.000000	1.986436
O	1.986436	1.986436	0.000000
Sb	1.986436	1.986436	1.986436
Ni	0.000000	0.000000	3.972872
O	0.000000	1.986436	5.959309
O	1.986436	0.000000	5.959309
O	1.986436	1.986436	3.972872
Sb	1.986436	1.986436	5.959309
Ni	0.000000	3.972872	0.000000
O	0.000000	5.959309	1.986436
O	1.986436	3.972872	1.986436
O	1.986436	5.959309	0.000000
Sb	1.986436	5.959309	1.986436
Ni	0.000000	3.972872	3.972872
O	0.000000	5.959309	5.959309
O	1.986436	3.972872	5.959309
O	1.986436	5.959309	3.972872
Sb	1.986436	5.959309	5.959309
Ni	3.972872	0.000000	0.000000
O	3.972872	1.986436	1.986436
O	5.959309	0.000000	1.986436
O	5.959309	1.986436	0.000000
Sb	5.959309	1.986436	1.986436
Ni	3.972872	0.000000	3.972872
O	3.972872	1.986436	5.959309
O	5.959309	0.000000	5.959309
O	5.959309	1.986436	3.972872
Sb	5.959309	1.986436	5.959309
Ni	3.972872	3.972872	0.000000
O	3.972872	5.959309	1.986436
O	5.959309	3.972872	1.986436
O	5.959309	5.959309	0.000000
Sb	5.959309	5.959309	1.986436
Ni	3.972872	3.972872	3.972872
O	3.972872	5.959309	5.959309
O	5.959309	3.972872	5.959309
O	5.959309	5.959309	3.972872
Sb	5.959309	5.959309	5.959309
