464

Al	5.778874	0.204999	-0.204999
Al	8.770810	-2.786938	2.786938
Al	3.196935	-3.196935	2.786938
Al	2.991936	-1.495968	0.000000
Al	7.479840	-0.000000	-2.991936
Al	2.991936	1.495968	-5.983872
Al	-2.786938	-2.786938	-2.786938
Al	2.786938	-3.196935	-2.786938
Al	5.778874	-0.204999	-5.778874
Al	0.204999	-0.204999	-6.188871
Al	-0.000000	-2.991936	-4.487904
Al	4.487904	-5.983872	-2.991936
Al	-0.000000	-8.975808	-1.495968
Al	-5.778874	-5.778874	-5.778874
Ca	8.975808	-1.327988	0.000000
Ca	5.983872	-2.991936	1.327988
Ca	4.319924	0.000000	-2.991936
Ca	4.655885	-5.983872	2.991936
Ca	-0.000000	-2.991936	-1.327988
Ca	2.991936	-4.655885	-0.000000
Ca	5.983872	-2.991936	-4.319924
Ca	2.991936	-1.663949	-5.983872
Ca	1.663949	0.000000	-8.975808
Ca	1.327988	-5.983872	-2.991936
Ca	-2.991936	-4.319924	-5.983872
Ca	0.000000	-2.991936	-7.647821
O	3.786746	2.197126	-2.197126
O	6.778682	-0.794810	0.794810
O	4.791627	-3.685508	3.416909
O	4.184182	-0.424973	-0.693571
O	6.408845	0.693571	-1.799691
O	3.685508	-2.566963	1.192246
O	-0.794810	-0.794810	-0.794810
O	8.282237	-3.416909	1.192246
O	2.566963	-4.791627	2.298365
O	8.550836	-1.192246	-2.298365
O	2.298365	-2.566963	-1.192246
O	5.189062	-5.189062	0.794810
O	3.685508	2.566963	-7.176118
O	6.408845	-0.693571	-4.184182
O	4.184182	0.424973	-5.290301
O	-1.192246	-2.298365	-3.416909
O	0.794810	-5.189062	-0.794810
O	3.786746	-2.197126	-3.786746
O	1.799691	0.424973	-6.677444
O	1.192246	-3.685508	-3.416909
O	3.416909	-4.791627	-2.298365
O	0.693571	-1.799691	-5.558899
O	-3.786746	-3.786746	-3.786746
O	5.290301	-1.799691	-6.408845
O	-0.424973	-0.693571	-7.783563
O	5.558899	-5.290301	-4.184182
O	-0.693571	-4.184182	-5.558899
O	2.197126	-2.197126	-8.180998
O	0.693571	-10.168054	-0.424973
O	3.416909	-7.176118	-3.685508
O	1.192246	-8.282237	-2.566963
O	-4.184182	-6.408845	-5.290301
Al	-0.204999	-5.778874	-6.188871
Al	2.786938	-8.770810	-3.196935
Al	-2.786938	-9.180807	-3.196935
Al	-2.991936	-7.479840	-5.983872
Al	1.495968	-5.983872	-8.975808
Al	-2.991936	-4.487904	-11.967744
Al	-8.770810	-8.770810	-8.770810
Al	-3.196935	-9.180807	-8.770810
Al	-0.204999	-6.188871	-11.762746
Al	-5.778874	-6.188871	-12.172743
Al	-5.983872	-8.975808	-10.471776
Al	-1.495968	-11.967744	-8.975808
Al	-5.983872	-14.959681	-7.479840
Al	-11.762746	-11.762746	-11.762746
Ca	2.991936	-7.311860	-5.983872
Ca	0.000000	-8.975808	-4.655885
Ca	-1.663949	-5.983872	-8.975808
Ca	-1.327988	-11.967744	-2.991936
Ca	-5.983872	-8.975808	-7.311860
Ca	-2.991936	-10.639757	-5.983872
Ca	0.000000	-8.975808	-10.303796
Ca	-2.991936	-7.647821	-11.967744
Ca	-4.319924	-5.983872	-14.959681
Ca	-4.655885	-11.967744	-8.975808
Ca	-8.975808	-10.303796	-11.967744
Ca	-5.983872	-8.975808	-13.631693
O	-2.197126	-3.786746	-8.180998
O	0.794810	-6.778682	-5.189062
O	-1.192246	-9.669380	-2.566963
O	-1.799691	-6.408845	-6.677444
O	0.424973	-5.290301	-7.783563
O	-2.298365	-8.550836	-4.791627
O	-6.778682	-6.778682	-6.778682
O	2.298365	-9.400781	-4.791627
O	-3.416909	-10.775499	-3.685508
O	2.566963	-7.176118	-8.282237
O	-3.685508	-8.550836	-7.176118
O	-0.794810	-11.172934	-5.189062
O	-2.298365	-3.416909	-13.159990
O	0.424973	-6.677444	-10.168054
O	-1.799691	-5.558899	-11.274173
O	-7.176118	-8.282237	-9.400781
O	-5.189062	-11.172934	-6.778682
O	-2.197126	-8.180998	-9.770618
O	-4.184182	-5.558899	-12.661316
O	-4.791627	-9.669380	-9.400781
O	-2.566963	-10.775499	-8.282237
O	-5.290301	-7.783563	-11.542772
O	-9.770618	-9.770618	-9.770618
O	-0.693571	-7.783563	-12.392717
O	-6.408845	-6.677444	-13.767435
O	-0.424973	-11.274173	-10.168054
O	-6.677444	-10.168054	-11.542772
O	-3.786746	-8.180998	-14.164871
O	-5.290301	-16.151926	-6.408845
O	-2.566963	-13.159990	-9.669380
O	-4.791627	-14.266109	-8.550836
O	-10.168054	-12.392717	-11.274173
Al	11.762746	-5.778874	5.778874
Al	14.754682	-8.770810	8.770810
Al	9.180807	-9.180807	8.770810
Al	8.975808	-7.479840	5.983872
Al	13.463712	-5.983872	2.991936
Al	8.975808	-4.487904	0.000000
Al	3.196935	-8.770810	3.196935
Al	8.770810	-9.180807	3.196935
Al	11.762746	-6.188871	0.204999
Al	6.188871	-6.188871	-0.204999
Al	5.983872	-8.975808	1.495968
Al	10.471776	-11.967744	2.991936
Al	5.983872	-14.959681	4.487904
Al	0.204999	-11.762746	0.204999
Ca	14.959681	-7.311860	5.983872
Ca	11.967744	-8.975808	7.311860
Ca	10.303796	-5.983872	2.991936
Ca	10.639757	-11.967744	8.975808
Ca	5.983872	-8.975808	4.655885
Ca	8.975808	-10.639757	5.983872
Ca	11.967744	-8.975808	1.663949
Ca	8.975808	-7.647821	0.000000
Ca	7.647821	-5.983872	-2.991936
Ca	7.311860	-11.967744	2.991936
Ca	2.991936	-10.303796	0.000000
Ca	5.983872	-8.975808	-1.663949
O	9.770618	-3.786746	3.786746
O	12.762554	-6.778682	6.778682
O	10.775499	-9.669380	9.400781
O	10.168054	-6.408845	5.290301
O	12.392717	-5.290301	4.184182
O	9.669380	-8.550836	7.176118
O	5.189062	-6.778682	5.189062
O	14.266109	-9.400781	7.176118
O	8.550836	-10.775499	8.282237
O	14.534708	-7.176118	3.685508
O	8.282237	-8.550836	4.791627
O	11.172934	-11.172934	6.778682
O	9.669380	-3.416909	-1.192246
O	12.392717	-6.677444	1.799691
O	10.168054	-5.558899	0.693571
O	4.791627	-8.282237	2.566963
O	6.778682	-11.172934	5.189062
O	9.770618	-8.180998	2.197126
O	7.783563	-5.558899	-0.693571
O	7.176118	-9.669380	2.566963
O	9.400781	-10.775499	3.685508
O	6.677444	-7.783563	0.424973
O	2.197126	-9.770618	2.197126
O	11.274173	-7.783563	-0.424973
O	5.558899	-6.677444	-1.799691
O	11.542772	-11.274173	1.799691
O	5.290301	-10.168054	0.424973
O	8.180998	-8.180998	-2.197126
O	6.677444	-16.151926	5.558899
O	9.400781	-13.159990	2.298365
O	7.176118	-14.266109	3.416909
O	1.799691	-12.392717	0.693571
Al	5.778874	-11.762746	-0.204999
Al	8.770810	-14.754682	2.786938
Al	3.196935	-15.164679	2.786938
Al	2.991936	-13.463712	0.000000
Al	7.479840	-11.967744	-2.991936
Al	2.991936	-10.471776	-5.983872
Al	-2.786938	-14.754682	-2.786938
Al	2.786938	-15.164679	-2.786938
Al	5.778874	-12.172743	-5.778874
Al	0.204999	-12.172743	-6.188871
Al	0.000000	-14.959681	-4.487904
Al	4.487904	-17.951617	-2.991936
Al	0.000000	-20.943553	-1.495968
Al	-5.778874	-17.746618	-5.778874
Ca	8.975808	-13.295732	0.000000
Ca	5.983872	-14.959681	1.327988
Ca	4.319924	-11.967744	-2.991936
Ca	4.655885	-17.951617	2.991936
Ca	0.000000	-14.959681	-1.327988
Ca	2.991936	-16.623629	0.000000
Ca	5.983872	-14.959681	-4.319924
Ca	2.991936	-13.631693	-5.983872
Ca	1.663949	-11.967744	-8.975808
Ca	1.327988	-17.951617	-2.991936
Ca	-2.991936	-16.287668	-5.983872
Ca	0.000000	-14.959681	-7.647821
O	3.786746	-9.770618	-2.197126
O	6.778682	-12.762554	0.794810
O	4.791627	-15.653252	3.416909
O	4.184182	-12.392717	-0.693571
O	6.408845	-11.274173	-1.799691
O	3.685508	-14.534708	1.192246
O	-0.794810	-12.762554	-0.794810
O	8.282237	-15.384653	1.192246
O	2.566963	-16.759371	2.298365
O	8.550836	-13.159990	-2.298365
O	2.298365	-14.534708	-1.192246
O	5.189062	-17.156807	0.794810
O	3.685508	-9.400781	-7.176118
O	6.408845	-12.661316	-4.184182
O	4.184182	-11.542772	-5.290301
O	-1.192246	-14.266109	-3.416909
O	0.794810	-17.156807	-0.794810
O	3.786746	-14.164871	-3.786746
O	1.799691	-11.542772	-6.677444
O	1.192246	-15.653252	-3.416909
O	3.416909	-16.759371	-2.298365
O	0.693571	-13.767435	-5.558899
O	-3.786746	-15.754490	-3.786746
O	5.290301	-13.767435	-6.408845
O	-0.424973	-12.661316	-7.783563
O	5.558899	-17.258045	-4.184182
O	-0.693571	-16.151926	-5.558899
O	2.197126	-14.164871	-8.180998
O	0.693571	-22.135798	-0.424973
O	3.416909	-19.143862	-3.685508
O	1.192246	-20.249981	-2.566963
O	-4.184182	-18.376589	-5.290301
Al	11.762746	6.188871	-6.188871
Al	14.754682	3.196935	-3.196935
Al	9.180807	2.786938	-3.196935
Al	8.975808	4.487904	-5.983872
Al	13.463712	5.983872	-8.975808
Al	8.975808	7.479840	-11.967744
Al	3.196935	3.196935	-8.770810
Al	8.770810	2.786938	-8.770810
Al	11.762746	5.778874	-11.762746
Al	6.188871	5.778874	-12.172743
Al	5.983872	2.991936	-10.471776
Al	10.471776	0.000000	-8.975808
Al	5.983872	-2.991936	-7.479840
Al	0.204999	0.204999	-11.762746
Ca	14.959681	4.655885	-5.983872
Ca	11.967744	2.991936	-4.655885
Ca	10.303796	5.983872	-8.975808
Ca	10.639757	0.000000	-2.991936
Ca	5.983872	2.991936	-7.311860
Ca	8.975808	1.327988	-5.983872
Ca	11.967744	2.991936	-10.303796
Ca	8.975808	4.319924	-11.967744
Ca	7.647821	5.983872	-14.959681
Ca	7.311860	0.000000	-8.975808
Ca	2.991936	1.663949	-11.967744
Ca	5.983872	2.991936	-13.631693
O	9.770618	8.180998	-8.180998
O	12.762554	5.189062	-5.189062
O	10.775499	2.298365	-2.566963
O	10.168054	5.558899	-6.677444
O	12.392717	6.677444	-7.783563
O	9.669380	3.416909	-4.791627
O	5.189062	5.189062	-6.778682
O	14.266109	2.566963	-4.791627
O	8.550836	1.192246	-3.685508
O	14.534708	4.791627	-8.282237
O	8.282237	3.416909	-7.176118
O	11.172934	0.794810	-5.189062
O	9.669380	8.550836	-13.159990
O	12.392717	5.290301	-10.168054
O	10.168054	6.408845	-11.274173
O	4.791627	3.685508	-9.400781
O	6.778682	0.794810	-6.778682
O	9.770618	3.786746	-9.770618
O	7.783563	6.408845	-12.661316
O	7.176118	2.298365	-9.400781
O	9.400781	1.192246	-8.282237
O	6.677444	4.184182	-11.542772
O	2.197126	2.197126	-9.770618
O	11.274173	4.184182	-12.392717
O	5.558899	5.290301	-13.767435
O	11.542772	0.693571	-10.168054
O	5.290301	1.799691	-11.542772
O	8.180998	3.786746	-14.164871
O	6.677444	-4.184182	-6.408845
O	9.400781	-1.192246	-9.669380
O	7.176118	-2.298365	-8.550836
O	1.799691	-0.424973	-11.274173
Al	5.778874	0.204999	-12.172743
Al	8.770810	-2.786938	-9.180807
Al	3.196935	-3.196935	-9.180807
Al	2.991936	-1.495968	-11.967744
Al	7.479840	0.000000	-14.959681
Al	2.991936	1.495968	-17.951617
Al	-2.786938	-2.786938	-14.754682
Al	2.786938	-3.196935	-14.754682
Al	5.778874	-0.204999	-17.746618
Al	0.204999	-0.204999	-18.156615
Al	0.000000	-2.991936	-16.455649
Al	4.487904	-5.983872	-14.959681
Al	0.000000	-8.975808	-13.463712
Al	-5.778874	-5.778874	-17.746618
Ca	8.975808	-1.327988	-11.967744
Ca	5.983872	-2.991936	-10.639757
Ca	4.319924	0.000000	-14.959681
Ca	4.655885	-5.983872	-8.975808
Ca	0.000000	-2.991936	-13.295732
Ca	2.991936	-4.655885	-11.967744
Ca	5.983872	-2.991936	-16.287668
Ca	2.991936	-1.663949	-17.951617
Ca	1.663949	0.000000	-20.943553
Ca	1.327988	-5.983872	-14.959681
Ca	-2.991936	-4.319924	-17.951617
Ca	0.000000	-2.991936	-19.615565
O	3.786746	2.197126	-14.164871
O	6.778682	-0.794810	-11.172934
O	4.791627	-3.685508	-8.550836
O	4.184182	-0.424973	-12.661316
O	6.408845	0.693571	-13.767435
O	3.685508	-2.566963	-10.775499
O	-0.794810	-0.794810	-12.762554
O	8.282237	-3.416909	-10.775499
O	2.566963	-4.791627	-9.669380
O	8.550836	-1.192246	-14.266109
O	2.298365	-2.566963	-13.159990
O	5.189062	-5.189062	-11.172934
O	3.685508	2.566963	-19.143862
O	6.408845	-0.693571	-16.151926
O	4.184182	0.424973	-17.258045
O	-1.192246	-2.298365	-15.384653
O	0.794810	-5.189062	-12.762554
O	3.786746	-2.197126	-15.754490
O	1.799691	0.424973	-18.645188
O	1.192246	-3.685508	-15.384653
O	3.416909	-4.791627	-14.266109
O	0.693571	-1.799691	-17.526644
O	-3.786746	-3.786746	-15.754490
O	5.290301	-1.799691	-18.376589
O	-0.424973	-0.693571	-19.751307
O	5.558899	-5.290301	-16.151926
O	-0.693571	-4.184182	-17.526644
O	2.197126	-2.197126	-20.148743
O	0.693571	-10.168054	-12.392717
O	3.416909	-7.176118	-15.653252
O	1.192246	-8.282237	-14.534708
O	-4.184182	-6.408845	-17.258045
Al	17.746618	0.204999	-0.204999
Al	20.738554	-2.786938	2.786938
Al	15.164679	-3.196935	2.786938
Al	14.959681	-1.495968	0.000000
Al	19.447585	0.000000	-2.991936
Al	14.959681	1.495968	-5.983872
Al	9.180807	-2.786938	-2.786938
Al	14.754682	-3.196935	-2.786938
Al	17.746618	-0.204999	-5.778874
Al	12.172743	-0.204999	-6.188871
Al	11.967744	-2.991936	-4.487904
Al	16.455649	-5.983872	-2.991936
Al	11.967744	-8.975808	-1.495968
Al	6.188871	-5.778874	-5.778874
Ca	20.943553	-1.327988	0.000000
Ca	17.951617	-2.991936	1.327988
Ca	16.287668	0.000000	-2.991936
Ca	16.623629	-5.983872	2.991936
Ca	11.967744	-2.991936	-1.327988
Ca	14.959681	-4.655885	0.000000
Ca	17.951617	-2.991936	-4.319924
Ca	14.959681	-1.663949	-5.983872
Ca	13.631693	0.000000	-8.975808
Ca	13.295732	-5.983872	-2.991936
Ca	8.975808	-4.319924	-5.983872
Ca	11.967744	-2.991936	-7.647821
O	15.754490	2.197126	-2.197126
O	18.746427	-0.794810	0.794810
O	16.759371	-3.685508	3.416909
O	16.151926	-0.424973	-0.693571
O	18.376589	0.693571	-1.799691
O	15.653252	-2.566963	1.192246
O	11.172934	-0.794810	-0.794810
O	20.249981	-3.416909	1.192246
O	14.534708	-4.791627	2.298365
O	20.518580	-1.192246	-2.298365
O	14.266109	-2.566963	-1.192246
O	17.156807	-5.189062	0.794810
O	15.653252	2.566963	-7.176118
O	18.376589	-0.693571	-4.184182
O	16.151926	0.424973	-5.290301
O	10.775499	-2.298365	-3.416909
O	12.762554	-5.189062	-0.794810
O	15.754490	-2.197126	-3.786746
O	13.767435	0.424973	-6.677444
O	13.159990	-3.685508	-3.416909
O	15.384653	-4.791627	-2.298365
O	12.661316	-1.799691	-5.558899
O	8.180998	-3.786746	-3.786746
O	17.258045	-1.799691	-6.408845
O	11.542772	-0.693571	-7.783563
O	17.526644	-5.290301	-4.184182
O	11.274173	-4.184182	-5.558899
O	14.164871	-2.197126	-8.180998
O	12.661316	-10.168054	-0.424973
O	15.384653	-7.176118	-3.685508
O	13.159990	-8.282237	-2.566963
O	7.783563	-6.408845	-5.290301
Al	11.762746	-5.778874	-6.188871
Al	14.754682	-8.770810	-3.196935
Al	9.180807	-9.180807	-3.196935
Al	8.975808	-7.479840	-5.983872
Al	13.463712	-5.983872	-8.975808
Al	8.975808	-4.487904	-11.967744
Al	3.196935	-8.770810	-8.770810
Al	8.770810	-9.180807	-8.770810
Al	11.762746	-6.188871	-11.762746
Al	6.188871	-6.188871	-12.172743
Al	5.983872	-8.975808	-10.471776
Al	10.471776	-11.967744	-8.975808
Al	5.983872	-14.959681	-7.479840
Al	0.204999	-11.762746	-11.762746
Ca	14.959681	-7.311860	-5.983872
Ca	11.967744	-8.975808	-4.655885
Ca	10.303796	-5.983872	-8.975808
Ca	10.639757	-11.967744	-2.991936
Ca	5.983872	-8.975808	-7.311860
Ca	8.975808	-10.639757	-5.983872
Ca	11.967744	-8.975808	-10.303796
Ca	8.975808	-7.647821	-11.967744
Ca	7.647821	-5.983872	-14.959681
Ca	7.311860	-11.967744	-8.975808
Ca	2.991936	-10.303796	-11.967744
Ca	5.983872	-8.975808	-13.631693
O	9.770618	-3.786746	-8.180998
O	12.762554	-6.778682	-5.189062
O	10.775499	-9.669380	-2.566963
O	10.168054	-6.408845	-6.677444
O	12.392717	-5.290301	-7.783563
O	9.669380	-8.550836	-4.791627
O	5.189062	-6.778682	-6.778682
O	14.266109	-9.400781	-4.791627
O	8.550836	-10.775499	-3.685508
O	14.534708	-7.176118	-8.282237
O	8.282237	-8.550836	-7.176118
O	11.172934	-11.172934	-5.189062
O	9.669380	-3.416909	-13.159990
O	12.392717	-6.677444	-10.168054
O	10.168054	-5.558899	-11.274173
O	4.791627	-8.282237	-9.400781
O	6.778682	-11.172934	-6.778682
O	9.770618	-8.180998	-9.770618
O	7.783563	-5.558899	-12.661316
O	7.176118	-9.669380	-9.400781
O	9.400781	-10.775499	-8.282237
O	6.677444	-7.783563	-11.542772
O	2.197126	-9.770618	-9.770618
O	11.274173	-7.783563	-12.392717
O	5.558899	-6.677444	-13.767435
O	11.542772	-11.274173	-10.168054
O	5.290301	-10.168054	-11.542772
O	8.180998	-8.180998	-14.164871
O	6.677444	-16.151926	-6.408845
O	9.400781	-13.159990	-9.669380
O	7.176118	-14.266109	-8.550836
O	1.799691	-12.392717	-11.274173
