40

O	2.079380	2.079380	0.000000
O	0.000000	2.079380	2.079380
O	2.079380	0.000000	2.079380
Re	0.000000	0.000000	0.000000
Te	2.079380	2.079380	2.079380
O	2.079380	2.079380	4.158760
O	0.000000	2.079380	6.238140
O	2.079380	0.000000	6.238140
Re	0.000000	0.000000	4.158760
Te	2.079380	2.079380	6.238140
O	2.079380	6.238140	0.000000
O	0.000000	6.238140	2.079380
O	2.079380	4.158760	2.079380
Re	0.000000	4.158760	0.000000
Te	2.079380	6.238140	2.079380
O	2.079380	6.238140	4.158760
O	0.000000	6.238140	6.238140
O	2.079380	4.158760	6.238140
Re	0.000000	4.158760	4.158760
Te	2.079380	6.238140	6.238140
O	6.238140	2.079380	0.000000
O	4.158760	2.079380	2.079380
O	6.238140	0.000000	2.079380
Re	4.158760	0.000000	0.000000
Te	6.238140	2.079380	2.079380
O	6.238140	2.079380	4.158760
O	4.158760	2.079380	6.238140
O	6.238140	0.000000	6.238140
Re	4.158760	0.000000	4.158760
Te	6.238140	2.079380	6.238140
O	6.238140	6.238140	0.000000
O	4.158760	6.238140	2.079380
O	6.238140	4.158760	2.079380
Re	4.158760	4.158760	0.000000
Te	6.238140	6.238140	2.079380
O	6.238140	6.238140	4.158760
O	4.158760	6.238140	6.238140
O	6.238140	4.158760	6.238140
Re	4.158760	4.158760	4.158760
Te	6.238140	6.238140	6.238140
