112

Ho	0.000000	0.000000	0.000000
Ho	2.436539	-2.446337	-2.446337
Np	-1.218270	-1.223169	-3.669506
Np	3.654809	1.223169	-1.223169
Np	6.091348	-1.223169	-1.223169
Np	1.218270	1.223169	-3.669506
O	3.666291	-1.215428	-1.215428
O	-1.206787	1.215428	-3.677247
O	1.206787	-1.215428	-3.677247
O	1.229752	1.230910	-1.230910
O	6.079866	1.215428	-1.215428
O	1.229752	3.661765	-3.661765
O	3.643327	3.661765	-1.230910
O	3.643327	1.230910	-3.661765
Ho	4.873078	4.892675	0.000000
Ho	7.309618	2.446337	-2.446337
Np	3.654809	3.669506	-3.669506
Np	8.527887	6.115843	-1.223169
Np	10.964427	3.669506	-1.223169
Np	6.091348	6.115843	-3.669506
O	8.539370	3.677247	-1.215428
O	3.666291	6.108102	-3.677247
O	6.079866	3.677247	-3.677247
O	6.102830	6.123584	-1.230910
O	10.952944	6.108102	-1.215428
O	6.102830	8.554440	-3.661765
O	8.516405	8.554440	-1.230910
O	8.516405	6.123584	-3.661765
Ho	-4.873078	0.000000	-4.892675
Ho	-2.436539	-2.446337	-7.339012
Np	-6.091348	-1.223169	-8.562181
Np	-1.218270	1.223169	-6.115843
Np	1.218270	-1.223169	-6.115843
Np	-3.654809	1.223169	-8.562181
O	-1.206787	-1.215428	-6.108102
O	-6.079866	1.215428	-8.569922
O	-3.666291	-1.215428	-8.569922
O	-3.643327	1.230910	-6.123584
O	1.206787	1.215428	-6.108102
O	-3.643327	3.661765	-8.554440
O	-1.229752	3.661765	-6.123584
O	-1.229752	1.230910	-8.554440
Ho	0.000000	4.892675	-4.892675
Ho	2.436539	2.446337	-7.339012
Np	-1.218270	3.669506	-8.562181
Np	3.654809	6.115843	-6.115843
Np	6.091348	3.669506	-6.115843
Np	1.218270	6.115843	-8.562181
O	3.666291	3.677247	-6.108102
O	-1.206787	6.108102	-8.569922
O	1.206787	3.677247	-8.569922
O	1.229752	6.123584	-6.123584
O	6.079866	6.108102	-6.108102
O	1.229752	8.554440	-8.554440
O	3.643327	8.554440	-6.123584
O	3.643327	6.123584	-8.554440
Ho	4.873078	-4.892675	0.000000
Ho	7.309618	-7.339012	-2.446337
Np	3.654809	-6.115843	-3.669506
Np	8.527887	-3.669506	-1.223169
Np	10.964427	-6.115843	-1.223169
Np	6.091348	-3.669506	-3.669506
O	8.539370	-6.108102	-1.215428
O	3.666291	-3.677247	-3.677247
O	6.079866	-6.108102	-3.677247
O	6.102830	-3.661765	-1.230910
O	10.952944	-3.677247	-1.215428
O	6.102830	-1.230910	-3.661765
O	8.516405	-1.230910	-1.230910
O	8.516405	-3.661765	-3.661765
Ho	9.746157	0.000000	0.000000
Ho	12.182696	-2.446337	-2.446337
Np	8.527887	-1.223169	-3.669506
Np	13.400966	1.223169	-1.223169
Np	15.837505	-1.223169	-1.223169
Np	10.964427	1.223169	-3.669506
O	13.412448	-1.215428	-1.215428
O	8.539370	1.215428	-3.677247
O	10.952944	-1.215428	-3.677247
O	10.975909	1.230910	-1.230910
O	15.826023	1.215428	-1.215428
O	10.975909	3.661765	-3.661765
O	13.389484	3.661765	-1.230910
O	13.389484	1.230910	-3.661765
Ho	0.000000	-4.892675	-4.892675
Ho	2.436539	-7.339012	-7.339012
Np	-1.218270	-6.115843	-8.562181
Np	3.654809	-3.669506	-6.115843
Np	6.091348	-6.115843	-6.115843
Np	1.218270	-3.669506	-8.562181
O	3.666291	-6.108102	-6.108102
O	-1.206787	-3.677247	-8.569922
O	1.206787	-6.108102	-8.569922
O	1.229752	-3.661765	-6.123584
O	6.079866	-3.677247	-6.108102
O	1.229752	-1.230910	-8.554440
O	3.643327	-1.230910	-6.123584
O	3.643327	-3.661765	-8.554440
Ho	4.873078	0.000000	-4.892675
Ho	7.309618	-2.446337	-7.339012
Np	3.654809	-1.223169	-8.562181
Np	8.527887	1.223169	-6.115843
Np	10.964427	-1.223169	-6.115843
Np	6.091348	1.223169	-8.562181
O	8.539370	-1.215428	-6.108102
O	3.666291	1.215428	-8.569922
O	6.079866	-1.215428	-8.569922
O	6.102830	1.230910	-6.123584
O	10.952944	1.215428	-6.108102
O	6.102830	3.661765	-8.554440
O	8.516405	3.661765	-6.123584
O	8.516405	1.230910	-8.554440
