112

Ga	0.000000	0.000000	0.000000
Ga	2.464534	-2.464812	-2.464812
K	-1.232267	-1.232411	-3.697213
K	1.232267	1.232411	-3.697213
K	6.161334	-1.232411	-1.232411
K	3.696801	1.232411	-1.232411
O	1.064819	1.065213	-1.065213
O	3.529343	-1.399599	-1.399599
O	-1.399715	1.399599	-3.530025
O	1.399715	-1.399599	-3.530025
O	1.064819	3.864420	-3.864420
O	3.864259	3.864420	-1.065213
O	3.864259	1.065213	-3.864420
O	6.328793	1.399599	-1.399599
Ga	4.929068	4.929625	0.000000
Ga	7.393602	2.464813	-2.464812
K	3.696801	3.697214	-3.697213
K	6.161335	6.162035	-3.697213
K	11.090402	3.697214	-1.232411
K	8.625869	6.162035	-1.232411
O	5.993887	5.994838	-1.065213
O	8.458410	3.530026	-1.399599
O	3.529353	6.329223	-3.530025
O	6.328783	3.530026	-3.530025
O	5.993887	8.794045	-3.864420
O	8.793327	8.794045	-1.065213
O	8.793327	5.994838	-3.864420
O	11.257860	6.329223	-1.399599
Ga	-4.929068	0.000000	-4.929625
Ga	-2.464534	-2.464812	-7.394436
K	-6.161335	-1.232411	-8.626837
K	-3.696801	1.232411	-8.626837
K	1.232267	-1.232411	-6.162035
K	-1.232267	1.232411	-6.162035
O	-3.864249	1.065213	-5.994838
O	-1.399725	-1.399599	-6.329223
O	-6.328783	1.399599	-8.459649
O	-3.529353	-1.399599	-8.459649
O	-3.864249	3.864420	-8.794045
O	-1.064809	3.864420	-5.994838
O	-1.064809	1.065213	-8.794045
O	1.399725	1.399599	-6.329223
Ga	0.000000	4.929625	-4.929625
Ga	2.464534	2.464813	-7.394436
K	-1.232267	3.697214	-8.626837
K	1.232267	6.162035	-8.626837
K	6.161334	3.697214	-6.162035
K	3.696801	6.162035	-6.162035
O	1.064819	5.994838	-5.994838
O	3.529343	3.530026	-6.329223
O	-1.399715	6.329223	-8.459649
O	1.399715	3.530026	-8.459649
O	1.064819	8.794045	-8.794045
O	3.864259	8.794045	-5.994838
O	3.864259	5.994838	-8.794045
O	6.328793	6.329223	-6.329223
Ga	4.929068	-4.929625	0.000000
Ga	7.393602	-7.394436	-2.464812
K	3.696801	-6.162035	-3.697213
K	6.161335	-3.697214	-3.697213
K	11.090402	-6.162035	-1.232411
K	8.625869	-3.697214	-1.232411
O	5.993887	-3.864411	-1.065213
O	8.458410	-6.329223	-1.399599
O	3.529353	-3.530026	-3.530025
O	6.328783	-6.329223	-3.530025
O	5.993887	-1.065204	-3.864420
O	8.793327	-1.065204	-1.065213
O	8.793327	-3.864411	-3.864420
O	11.257860	-3.530026	-1.399599
Ga	9.858136	0.000000	0.000000
Ga	12.322670	-2.464812	-2.464812
K	8.625869	-1.232411	-3.697213
K	11.090403	1.232411	-3.697213
K	16.019470	-1.232411	-1.232411
K	13.554936	1.232411	-1.232411
O	10.922954	1.065213	-1.065213
O	13.387478	-1.399599	-1.399599
O	8.458421	1.399599	-3.530025
O	11.257851	-1.399599	-3.530025
O	10.922954	3.864420	-3.864420
O	13.722394	3.864420	-1.065213
O	13.722394	1.065213	-3.864420
O	16.186928	1.399599	-1.399599
Ga	0.000000	-4.929625	-4.929625
Ga	2.464534	-7.394436	-7.394436
K	-1.232267	-6.162035	-8.626837
K	1.232267	-3.697214	-8.626837
K	6.161334	-6.162035	-6.162035
K	3.696801	-3.697214	-6.162035
O	1.064819	-3.864411	-5.994838
O	3.529343	-6.329223	-6.329223
O	-1.399715	-3.530026	-8.459649
O	1.399715	-6.329223	-8.459649
O	1.064819	-1.065204	-8.794045
O	3.864259	-1.065204	-5.994838
O	3.864259	-3.864411	-8.794045
O	6.328793	-3.530026	-6.329223
Ga	4.929068	0.000000	-4.929625
Ga	7.393602	-2.464812	-7.394436
K	3.696801	-1.232411	-8.626837
K	6.161335	1.232411	-8.626837
K	11.090402	-1.232411	-6.162035
K	8.625869	1.232411	-6.162035
O	5.993887	1.065213	-5.994838
O	8.458410	-1.399599	-6.329223
O	3.529353	1.399599	-8.459649
O	6.328783	-1.399599	-8.459649
O	5.993887	3.864420	-8.794045
O	8.793327	3.864420	-5.994838
O	8.793327	1.065213	-8.794045
O	11.257860	1.399599	-6.329223
