40

Co	0.000000	0.000000	0.000000
O	2.177241	2.177241	0.000000
O	2.177241	0.000000	2.177241
O	0.000000	2.177241	2.177241
Pa	2.177241	2.177241	2.177241
Co	0.000000	0.000000	4.354488
O	2.177241	2.177241	4.354488
O	2.177241	0.000000	6.531729
O	0.000000	2.177241	6.531729
Pa	2.177241	2.177241	6.531729
Co	0.000000	4.354488	0.000000
O	2.177241	6.531729	0.000000
O	2.177241	4.354488	2.177241
O	0.000000	6.531729	2.177241
Pa	2.177241	6.531729	2.177241
Co	0.000000	4.354488	4.354488
O	2.177241	6.531729	4.354488
O	2.177241	4.354488	6.531729
O	0.000000	6.531729	6.531729
Pa	2.177241	6.531729	6.531729
Co	4.354488	0.000000	0.000000
O	6.531729	2.177241	0.000000
O	6.531729	0.000000	2.177241
O	4.354488	2.177241	2.177241
Pa	6.531729	2.177241	2.177241
Co	4.354488	0.000000	4.354488
O	6.531729	2.177241	4.354488
O	6.531729	0.000000	6.531729
O	4.354488	2.177241	6.531729
Pa	6.531729	2.177241	6.531729
Co	4.354488	4.354488	0.000000
O	6.531729	6.531729	0.000000
O	6.531729	4.354488	2.177241
O	4.354488	6.531729	2.177241
Pa	6.531729	6.531729	2.177241
Co	4.354488	4.354488	4.354488
O	6.531729	6.531729	4.354488
O	6.531729	4.354488	6.531729
O	4.354488	6.531729	6.531729
Pa	6.531729	6.531729	6.531729
