40

Co	0.000000	0.000000	0.000000
O	2.187833	2.187833	0.000000
O	2.187833	0.000000	2.187833
O	0.000000	2.187833	2.187833
Pa	2.187833	2.187833	2.187833
Co	0.000000	0.000000	4.375666
O	2.187833	2.187833	4.375666
O	2.187833	0.000000	6.563499
O	0.000000	2.187833	6.563499
Pa	2.187833	2.187833	6.563499
Co	0.000000	4.375666	0.000000
O	2.187833	6.563499	0.000000
O	2.187833	4.375666	2.187833
O	0.000000	6.563499	2.187833
Pa	2.187833	6.563499	2.187833
Co	0.000000	4.375666	4.375666
O	2.187833	6.563499	4.375666
O	2.187833	4.375666	6.563499
O	0.000000	6.563499	6.563499
Pa	2.187833	6.563499	6.563499
Co	4.375666	0.000000	0.000000
O	6.563499	2.187833	0.000000
O	6.563499	0.000000	2.187833
O	4.375666	2.187833	2.187833
Pa	6.563499	2.187833	2.187833
Co	4.375666	0.000000	4.375666
O	6.563499	2.187833	4.375666
O	6.563499	0.000000	6.563499
O	4.375666	2.187833	6.563499
Pa	6.563499	2.187833	6.563499
Co	4.375666	4.375666	0.000000
O	6.563499	6.563499	0.000000
O	6.563499	4.375666	2.187833
O	4.375666	6.563499	2.187833
Pa	6.563499	6.563499	2.187833
Co	4.375666	4.375666	4.375666
O	6.563499	6.563499	4.375666
O	6.563499	4.375666	6.563499
O	4.375666	6.563499	6.563499
Pa	6.563499	6.563499	6.563499
