40

Na	1.975640	1.975640	1.975640
O	1.975640	0.000000	0.000000
O	0.000000	1.975640	0.000000
O	0.000000	0.000000	1.975640
Ta	-0.015000	0.000000	0.000000
Na	1.975640	1.975640	5.926919
O	1.975640	0.000000	3.951280
O	0.000000	1.975640	3.951280
O	0.000000	0.000000	5.926919
Ta	-0.015000	0.000000	3.951280
Na	1.975640	5.926919	1.975640
O	1.975640	3.951280	0.000000
O	0.000000	5.926919	0.000000
O	0.000000	3.951280	1.975640
Ta	-0.015000	3.951280	0.000000
Na	1.975640	5.926919	5.926919
O	1.975640	3.951280	3.951280
O	0.000000	5.926919	3.951280
O	0.000000	3.951280	5.926919
Ta	-0.015000	3.951280	3.951280
Na	5.926919	1.975640	1.975640
O	5.926919	0.000000	0.000000
O	3.951280	1.975640	0.000000
O	3.951280	0.000000	1.975640
Ta	3.936280	0.000000	0.000000
Na	5.926919	1.975640	5.926919
O	5.926919	0.000000	3.951280
O	3.951280	1.975640	3.951280
O	3.951280	0.000000	5.926919
Ta	3.936280	0.000000	3.951280
Na	5.926919	5.926919	1.975640
O	5.926919	3.951280	0.000000
O	3.951280	5.926919	0.000000
O	3.951280	3.951280	1.975640
Ta	3.936280	3.951280	0.000000
Na	5.926919	5.926919	5.926919
O	5.926919	3.951280	3.951280
O	3.951280	5.926919	3.951280
O	3.951280	3.951280	5.926919
Ta	3.936280	3.951280	3.951280
