40

Na	2.160768	2.160768	2.160768
O	2.160768	2.160768	0.000000
O	2.160768	0.000000	2.160768
O	0.000000	2.160768	2.160768
Rb	0.000000	0.000000	0.000000
Na	2.160768	2.160768	6.482303
O	2.160768	2.160768	4.321536
O	2.160768	0.000000	6.482303
O	0.000000	2.160768	6.482303
Rb	0.000000	0.000000	4.321536
Na	2.160768	6.482303	2.160768
O	2.160768	6.482303	0.000000
O	2.160768	4.321536	2.160768
O	0.000000	6.482303	2.160768
Rb	0.000000	4.321536	0.000000
Na	2.160768	6.482303	6.482303
O	2.160768	6.482303	4.321536
O	2.160768	4.321536	6.482303
O	0.000000	6.482303	6.482303
Rb	0.000000	4.321536	4.321536
Na	6.482303	2.160768	2.160768
O	6.482303	2.160768	0.000000
O	6.482303	0.000000	2.160768
O	4.321536	2.160768	2.160768
Rb	4.321536	0.000000	0.000000
Na	6.482303	2.160768	6.482303
O	6.482303	2.160768	4.321536
O	6.482303	0.000000	6.482303
O	4.321536	2.160768	6.482303
Rb	4.321536	0.000000	4.321536
Na	6.482303	6.482303	2.160768
O	6.482303	6.482303	0.000000
O	6.482303	4.321536	2.160768
O	4.321536	6.482303	2.160768
Rb	4.321536	4.321536	0.000000
Na	6.482303	6.482303	6.482303
O	6.482303	6.482303	4.321536
O	6.482303	4.321536	6.482303
O	4.321536	6.482303	6.482303
Rb	4.321536	4.321536	4.321536
