40

Al	1.876503	1.876503	1.876503
Eu	0.000000	0.000000	0.000000
O	1.876503	1.876503	0.000000
O	1.876503	0.000000	1.876503
O	0.000000	1.876503	1.876503
Al	1.876503	1.876503	5.629509
Eu	0.000000	0.000000	3.753006
O	1.876503	1.876503	3.753006
O	1.876503	0.000000	5.629509
O	0.000000	1.876503	5.629509
Al	1.876503	5.629509	1.876503
Eu	0.000000	3.753006	0.000000
O	1.876503	5.629509	0.000000
O	1.876503	3.753006	1.876503
O	0.000000	5.629509	1.876503
Al	1.876503	5.629509	5.629509
Eu	0.000000	3.753006	3.753006
O	1.876503	5.629509	3.753006
O	1.876503	3.753006	5.629509
O	0.000000	5.629509	5.629509
Al	5.629509	1.876503	1.876503
Eu	3.753006	0.000000	0.000000
O	5.629509	1.876503	0.000000
O	5.629509	0.000000	1.876503
O	3.753006	1.876503	1.876503
Al	5.629509	1.876503	5.629509
Eu	3.753006	0.000000	3.753006
O	5.629509	1.876503	3.753006
O	5.629509	0.000000	5.629509
O	3.753006	1.876503	5.629509
Al	5.629509	5.629509	1.876503
Eu	3.753006	3.753006	0.000000
O	5.629509	5.629509	0.000000
O	5.629509	3.753006	1.876503
O	3.753006	5.629509	1.876503
Al	5.629509	5.629509	5.629509
Eu	3.753006	3.753006	3.753006
O	5.629509	5.629509	3.753006
O	5.629509	3.753006	5.629509
O	3.753006	5.629509	5.629509
