40

Ce	2.286429	2.286429	2.286429
Gd	0.000000	0.000000	0.000000
O	2.286429	2.286429	0.000000
O	2.286429	0.000000	2.286429
O	0.000000	2.286429	2.286429
Ce	2.286429	2.286429	6.859287
Gd	0.000000	0.000000	4.572858
O	2.286429	2.286429	4.572858
O	2.286429	0.000000	6.859287
O	0.000000	2.286429	6.859287
Ce	2.286429	6.859287	2.286429
Gd	0.000000	4.572858	0.000000
O	2.286429	6.859287	0.000000
O	2.286429	4.572858	2.286429
O	0.000000	6.859287	2.286429
Ce	2.286429	6.859287	6.859287
Gd	0.000000	4.572858	4.572858
O	2.286429	6.859287	4.572858
O	2.286429	4.572858	6.859287
O	0.000000	6.859287	6.859287
Ce	6.859287	2.286429	2.286429
Gd	4.572858	0.000000	0.000000
O	6.859287	2.286429	0.000000
O	6.859287	0.000000	2.286429
O	4.572858	2.286429	2.286429
Ce	6.859287	2.286429	6.859287
Gd	4.572858	0.000000	4.572858
O	6.859287	2.286429	4.572858
O	6.859287	0.000000	6.859287
O	4.572858	2.286429	6.859287
Ce	6.859287	6.859287	2.286429
Gd	4.572858	4.572858	0.000000
O	6.859287	6.859287	0.000000
O	6.859287	4.572858	2.286429
O	4.572858	6.859287	2.286429
Ce	6.859287	6.859287	6.859287
Gd	4.572858	4.572858	4.572858
O	6.859287	6.859287	4.572858
O	6.859287	4.572858	6.859287
O	4.572858	6.859287	6.859287
