40

As	1.838910	1.838910	1.838910
Li	0.000000	0.000000	0.000000
O	1.838910	1.838910	0.000000
O	1.838910	0.000000	1.838910
O	0.000000	1.838910	1.838910
As	1.838910	1.838910	5.516729
Li	0.000000	0.000000	3.677820
O	1.838910	1.838910	3.677820
O	1.838910	0.000000	5.516729
O	0.000000	1.838910	5.516729
As	1.838910	5.516729	1.838910
Li	0.000000	3.677820	0.000000
O	1.838910	5.516729	0.000000
O	1.838910	3.677820	1.838910
O	0.000000	5.516729	1.838910
As	1.838910	5.516729	5.516729
Li	0.000000	3.677820	3.677820
O	1.838910	5.516729	3.677820
O	1.838910	3.677820	5.516729
O	0.000000	5.516729	5.516729
As	5.516729	1.838910	1.838910
Li	3.677820	0.000000	0.000000
O	5.516729	1.838910	0.000000
O	5.516729	0.000000	1.838910
O	3.677820	1.838910	1.838910
As	5.516729	1.838910	5.516729
Li	3.677820	0.000000	3.677820
O	5.516729	1.838910	3.677820
O	5.516729	0.000000	5.516729
O	3.677820	1.838910	5.516729
As	5.516729	5.516729	1.838910
Li	3.677820	3.677820	0.000000
O	5.516729	5.516729	0.000000
O	5.516729	3.677820	1.838910
O	3.677820	5.516729	1.838910
As	5.516729	5.516729	5.516729
Li	3.677820	3.677820	3.677820
O	5.516729	5.516729	3.677820
O	5.516729	3.677820	5.516729
O	3.677820	5.516729	5.516729
