112

O	5.233197	3.700429	9.064163
O	1.839844	1.300966	6.001446
O	2.652390	3.599194	4.594074
O	4.277483	1.300966	4.594074
O	4.420650	1.402200	7.656791
O	2.795557	3.700429	7.656791
O	1.839844	1.300966	3.186703
O	5.233197	3.700429	6.249419
Mg	6.188910	4.376220	10.719507
Mg	0.884130	0.625174	1.531358
Rh	3.536520	2.500697	3.062716
Rh	3.536520	2.500697	6.125433
Rh	0.884130	2.500697	4.594074
Rh	2.652390	0.000000	4.594074
O	5.233197	3.700429	15.189595
O	1.839844	1.300966	12.126879
O	2.652390	3.599194	10.719507
O	4.277483	1.300966	10.719507
O	4.420650	1.402200	13.782223
O	2.795557	3.700429	13.782223
O	1.839844	1.300966	9.312135
O	5.233197	3.700429	12.374852
Mg	6.188910	4.376220	16.844940
Mg	0.884130	0.625174	7.656791
Rh	3.536520	2.500697	9.188149
Rh	3.536520	2.500697	12.250865
Rh	0.884130	2.500697	10.719507
Rh	2.652390	0.000000	10.719507
O	7.001457	8.701824	12.126879
O	3.608104	6.302361	9.064163
O	4.420650	8.600589	7.656791
O	6.045743	6.302361	7.656791
O	6.188910	6.403595	10.719507
O	4.563817	8.701824	10.719507
O	3.608104	6.302361	6.249419
O	7.001457	8.701824	9.312135
Mg	7.957170	9.377615	13.782223
Mg	2.652390	5.626569	4.594074
Rh	5.304780	7.502092	6.125433
Rh	5.304780	7.502092	9.188149
Rh	2.652390	7.502092	7.656791
Rh	4.420650	5.001395	7.656791
O	7.001457	8.701824	18.252312
O	3.608104	6.302361	15.189595
O	4.420650	8.600589	13.782223
O	6.045743	6.302361	13.782223
O	6.188910	6.403595	16.844940
O	4.563817	8.701824	16.844940
O	3.608104	6.302361	12.374852
O	7.001457	8.701824	15.437568
Mg	7.957170	9.377615	19.907656
Mg	2.652390	5.626569	10.719507
Rh	5.304780	7.502092	12.250865
Rh	5.304780	7.502092	15.313582
Rh	2.652390	7.502092	13.782223
Rh	4.420650	5.001395	13.782223
O	10.537977	3.700429	12.126879
O	7.144624	1.300966	9.064163
O	7.957170	3.599194	7.656791
O	9.582263	1.300966	7.656791
O	9.725430	1.402200	10.719507
O	8.100338	3.700429	10.719507
O	7.144624	1.300966	6.249419
O	10.537977	3.700429	9.312135
Mg	11.493691	4.376220	13.782223
Mg	6.188910	0.625174	4.594074
Rh	8.841300	2.500697	6.125433
Rh	8.841300	2.500697	9.188149
Rh	6.188910	2.500697	7.656791
Rh	7.957170	0.000000	7.656791
O	10.537977	3.700429	18.252312
O	7.144624	1.300966	15.189595
O	7.957170	3.599194	13.782223
O	9.582263	1.300966	13.782223
O	9.725430	1.402200	16.844940
O	8.100338	3.700429	16.844940
O	7.144624	1.300966	12.374852
O	10.537977	3.700429	15.437568
Mg	11.493691	4.376220	19.907656
Mg	6.188910	0.625174	10.719507
Rh	8.841300	2.500697	12.250865
Rh	8.841300	2.500697	15.313582
Rh	6.188910	2.500697	13.782223
Rh	7.957170	0.000000	13.782223
O	12.306237	8.701824	15.189595
O	8.912884	6.302361	12.126879
O	9.725430	8.600589	10.719507
O	11.350523	6.302361	10.719507
O	11.493691	6.403595	13.782223
O	9.868598	8.701824	13.782223
O	8.912884	6.302361	9.312135
O	12.306237	8.701824	12.374852
Mg	13.261951	9.377615	16.844940
Mg	7.957170	5.626569	7.656791
Rh	10.609560	7.502092	9.188149
Rh	10.609560	7.502092	12.250865
Rh	7.957170	7.502092	10.719507
Rh	9.725430	5.001395	10.719507
O	12.306237	8.701824	21.315028
O	8.912884	6.302361	18.252311
O	9.725430	8.600589	16.844940
O	11.350523	6.302361	16.844940
O	11.493691	6.403595	19.907656
O	9.868598	8.701824	19.907656
O	8.912884	6.302361	15.437568
O	12.306237	8.701824	18.500284
Mg	13.261951	9.377615	22.970372
Mg	7.957170	5.626569	13.782223
Rh	10.609560	7.502092	15.313582
Rh	10.609560	7.502092	18.376298
Rh	7.957170	7.502092	16.844940
Rh	9.725430	5.001395	16.844940
