112

Mg	0.000000	0.000000	0.000000
Mg	2.072745	-2.072737	-2.072737
Ni	-1.036372	-1.036369	-3.109106
Ni	3.109117	1.036369	-1.036369
Ni	5.181862	-1.036369	-1.036369
Ni	1.036372	1.036369	-3.109106
O	3.207271	-0.937576	-0.937576
O	-0.938219	0.937576	-3.207898
O	0.938219	-0.937576	-3.207898
O	1.134526	1.135161	-1.135161
O	5.083709	0.937576	-0.937576
O	1.134526	3.010313	-3.010313
O	3.010964	3.010313	-1.135161
O	3.010964	1.135161	-3.010313
Mg	4.145490	4.145474	0.000000
Mg	6.218235	2.072737	-2.072737
Ni	3.109117	3.109106	-3.109106
Ni	7.254607	5.181843	-1.036369
Ni	9.327352	3.109106	-1.036369
Ni	5.181862	5.181843	-3.109106
O	7.352761	3.207898	-0.937576
O	3.207271	5.083051	-3.207898
O	5.083709	3.207898	-3.207898
O	5.280016	5.280635	-1.135161
O	9.229199	5.083051	-0.937576
O	5.280016	7.155788	-3.010313
O	7.156454	7.155788	-1.135161
O	7.156454	5.280635	-3.010313
Mg	-4.145490	0.000000	-4.145474
Mg	-2.072745	-2.072737	-6.218211
Ni	-5.181862	-1.036369	-7.254580
Ni	-1.036372	1.036369	-5.181843
Ni	1.036372	-1.036369	-5.181843
Ni	-3.109117	1.036369	-7.254580
O	-0.938219	-0.937576	-5.083051
O	-5.083709	0.937576	-7.353372
O	-3.207271	-0.937576	-7.353372
O	-3.010964	1.135161	-5.280635
O	0.938219	0.937576	-5.083051
O	-3.010964	3.010313	-7.155788
O	-1.134526	3.010313	-5.280635
O	-1.134526	1.135161	-7.155788
Mg	0.000000	4.145474	-4.145474
Mg	2.072745	2.072737	-6.218211
Ni	-1.036372	3.109106	-7.254580
Ni	3.109117	5.181843	-5.181843
Ni	5.181862	3.109106	-5.181843
Ni	1.036372	5.181843	-7.254580
O	3.207271	3.207898	-5.083051
O	-0.938219	5.083051	-7.353372
O	0.938219	3.207898	-7.353372
O	1.134526	5.280635	-5.280635
O	5.083709	5.083051	-5.083051
O	1.134526	7.155788	-7.155788
O	3.010964	7.155788	-5.280635
O	3.010964	5.280635	-7.155788
Mg	4.145490	-4.145474	0.000000
Mg	6.218235	-6.218211	-2.072737
Ni	3.109117	-5.181843	-3.109106
Ni	7.254607	-3.109106	-1.036369
Ni	9.327352	-5.181843	-1.036369
Ni	5.181862	-3.109106	-3.109106
O	7.352761	-5.083051	-0.937576
O	3.207271	-3.207898	-3.207898
O	5.083709	-5.083051	-3.207898
O	5.280016	-3.010313	-1.135161
O	9.229199	-3.207898	-0.937576
O	5.280016	-1.135161	-3.010313
O	7.156454	-1.135161	-1.135161
O	7.156454	-3.010313	-3.010313
Mg	8.290980	0.000000	0.000000
Mg	10.363725	-2.072737	-2.072737
Ni	7.254607	-1.036369	-3.109106
Ni	11.400097	1.036369	-1.036369
Ni	13.472842	-1.036369	-1.036369
Ni	9.327352	1.036369	-3.109106
O	11.498251	-0.937576	-0.937576
O	7.352761	0.937576	-3.207898
O	9.229199	-0.937576	-3.207898
O	9.425506	1.135161	-1.135161
O	13.374689	0.937576	-0.937576
O	9.425506	3.010313	-3.010313
O	11.301944	3.010313	-1.135161
O	11.301944	1.135161	-3.010313
Mg	0.000000	-4.145474	-4.145474
Mg	2.072745	-6.218211	-6.218211
Ni	-1.036372	-5.181843	-7.254580
Ni	3.109117	-3.109106	-5.181843
Ni	5.181862	-5.181843	-5.181843
Ni	1.036372	-3.109106	-7.254580
O	3.207271	-5.083051	-5.083051
O	-0.938219	-3.207898	-7.353372
O	0.938219	-5.083051	-7.353372
O	1.134526	-3.010313	-5.280635
O	5.083709	-3.207898	-5.083051
O	1.134526	-1.135161	-7.155788
O	3.010964	-1.135161	-5.280635
O	3.010964	-3.010313	-7.155788
Mg	4.145490	0.000000	-4.145474
Mg	6.218235	-2.072737	-6.218211
Ni	3.109117	-1.036369	-7.254580
Ni	7.254607	1.036369	-5.181843
Ni	9.327352	-1.036369	-5.181843
Ni	5.181862	1.036369	-7.254580
O	7.352761	-0.937576	-5.083051
O	3.207271	0.937576	-7.353372
O	5.083709	-0.937576	-7.353372
O	5.280016	1.135161	-5.280635
O	9.229199	0.937576	-5.083051
O	5.280016	3.010313	-7.155788
O	7.156454	3.010313	-5.280635
O	7.156454	1.135161	-7.155788
