112

Nd	0.000000	0.000000	0.000000
Nd	2.715669	-2.714564	-2.714564
O	1.275446	1.275406	-1.275406
O	3.991125	-1.439158	-1.439158
O	-1.440223	1.439158	-3.989969
O	1.440223	-1.439158	-3.989969
O	1.275446	4.153722	-4.153722
O	4.155903	1.275406	-4.153722
O	4.155903	4.153722	-1.275406
O	6.871582	1.439158	-1.439158
Rb	-1.357845	-1.357287	-4.071850
Rb	6.789193	-1.357287	-1.357287
Rb	4.073514	1.357287	-1.357287
Rb	1.357845	1.357287	-4.071850
Nd	5.431354	5.429127	0.000000
Nd	8.147023	2.714563	-2.714564
O	6.706800	6.704533	-1.275406
O	9.422479	3.989969	-1.439158
O	3.991130	6.868285	-3.989969
O	6.871577	3.989969	-3.989969
O	6.706800	9.582849	-4.153722
O	9.587257	6.704533	-4.153722
O	9.587256	9.582849	-1.275406
O	12.302936	6.868285	-1.439158
Rb	4.073509	4.071840	-4.071850
Rb	12.220547	4.071840	-1.357287
Rb	9.504868	6.786414	-1.357287
Rb	6.789198	6.786414	-4.071850
Nd	-5.431354	0.000000	-5.429127
Nd	-2.715684	-2.714564	-8.143691
O	-4.155908	1.275406	-6.704533
O	-1.440228	-1.439158	-6.868285
O	-6.871577	1.439158	-9.419097
O	-3.991130	-1.439158	-9.419097
O	-4.155908	4.153722	-9.582849
O	-1.275451	1.275406	-9.582849
O	-1.275451	4.153722	-6.704533
O	1.440228	1.439158	-6.868285
Rb	-6.789198	-1.357287	-9.500978
Rb	1.357840	-1.357287	-6.786414
Rb	-1.357840	1.357287	-6.786414
Rb	-4.073509	1.357287	-9.500978
Nd	0.000000	5.429127	-5.429127
Nd	2.715669	2.714563	-8.143691
O	1.275446	6.704533	-6.704533
O	3.991125	3.989969	-6.868285
O	-1.440223	6.868285	-9.419097
O	1.440223	3.989969	-9.419097
O	1.275446	9.582849	-9.582849
O	4.155903	6.704533	-9.582849
O	4.155903	9.582849	-6.704533
O	6.871582	6.868285	-6.868285
Rb	-1.357845	4.071840	-9.500978
Rb	6.789193	4.071840	-6.786414
Rb	4.073514	6.786414	-6.786414
Rb	1.357845	6.786414	-9.500978
Nd	5.431354	-5.429127	0.000000
Nd	8.147023	-8.143691	-2.714564
O	6.706800	-4.153721	-1.275406
O	9.422479	-6.868285	-1.439158
O	3.991130	-3.989969	-3.989969
O	6.871577	-6.868285	-3.989969
O	6.706800	-1.275405	-4.153722
O	9.587257	-4.153721	-4.153722
O	9.587256	-1.275405	-1.275406
O	12.302936	-3.989969	-1.439158
Rb	4.073509	-6.786414	-4.071850
Rb	12.220547	-6.786414	-1.357287
Rb	9.504868	-4.071840	-1.357287
Rb	6.789198	-4.071840	-4.071850
Nd	10.862708	0.000000	0.000000
Nd	13.578377	-2.714564	-2.714564
O	12.138154	1.275406	-1.275406
O	14.853833	-1.439158	-1.439158
O	9.422484	1.439158	-3.989969
O	12.302931	-1.439158	-3.989969
O	12.138154	4.153722	-4.153722
O	15.018610	1.275406	-4.153722
O	15.018610	4.153722	-1.275406
O	17.734290	1.439158	-1.439158
Rb	9.504863	-1.357287	-4.071850
Rb	17.651901	-1.357287	-1.357287
Rb	14.936222	1.357287	-1.357287
Rb	12.220552	1.357287	-4.071850
Nd	0.000000	-5.429127	-5.429127
Nd	2.715669	-8.143691	-8.143691
O	1.275446	-4.153721	-6.704533
O	3.991125	-6.868285	-6.868285
O	-1.440223	-3.989969	-9.419097
O	1.440223	-6.868285	-9.419097
O	1.275446	-1.275405	-9.582849
O	4.155903	-4.153721	-9.582849
O	4.155903	-1.275405	-6.704533
O	6.871582	-3.989969	-6.868285
Rb	-1.357845	-6.786414	-9.500978
Rb	6.789193	-6.786414	-6.786414
Rb	4.073514	-4.071840	-6.786414
Rb	1.357845	-4.071840	-9.500978
Nd	5.431354	0.000000	-5.429127
Nd	8.147023	-2.714564	-8.143691
O	6.706800	1.275406	-6.704533
O	9.422479	-1.439158	-6.868285
O	3.991130	1.439158	-9.419097
O	6.871577	-1.439158	-9.419097
O	6.706800	4.153722	-9.582849
O	9.587257	1.275406	-9.582849
O	9.587256	4.153722	-6.704533
O	12.302936	1.439158	-6.868285
Rb	4.073509	-1.357287	-9.500978
Rb	12.220547	-1.357287	-6.786414
Rb	9.504868	1.357287	-6.786414
Rb	6.789198	1.357287	-9.500978
