112

O	3.885486	-1.134568	-1.134568
O	-1.143330	1.134568	-3.872608
O	1.143330	-1.134568	-3.872608
O	1.371078	1.369020	-1.369020
O	6.172145	1.134568	-1.134568
O	1.371078	3.638155	-3.638155
O	3.657737	3.638155	-1.369020
O	3.657737	1.369020	-3.638155
Pr	0.000000	0.000000	0.000000
Pr	2.514408	-2.503588	-2.503588
Te	-1.257204	-1.251794	-3.755381
Te	3.771611	1.251794	-1.251794
Te	6.286019	-1.251794	-1.251794
Te	1.257204	1.251794	-3.755381
O	8.914301	3.872608	-1.134568
O	3.885486	6.141743	-3.872608
O	6.172145	3.872608	-3.872608
O	6.399893	6.376195	-1.369020
O	11.200960	6.141743	-1.134568
O	6.399893	8.645330	-3.638155
O	8.686552	8.645330	-1.369020
O	8.686552	6.376195	-3.638155
Pr	5.028815	5.007175	0.000000
Pr	7.543223	2.503588	-2.503588
Te	3.771611	3.755381	-3.755381
Te	8.800427	6.258969	-1.251794
Te	11.314834	3.755381	-1.251794
Te	6.286019	6.258969	-3.755381
O	-1.143330	-1.134568	-6.141743
O	-6.172145	1.134568	-8.879783
O	-3.885486	-1.134568	-8.879783
O	-3.657737	1.369020	-6.376195
O	1.143330	1.134568	-6.141743
O	-3.657737	3.638155	-8.645330
O	-1.371078	3.638155	-6.376195
O	-1.371078	1.369020	-8.645330
Pr	-5.028815	0.000000	-5.007175
Pr	-2.514408	-2.503588	-7.510763
Te	-6.286019	-1.251794	-8.762557
Te	-1.257204	1.251794	-6.258969
Te	1.257204	-1.251794	-6.258969
Te	-3.771611	1.251794	-8.762557
O	3.885486	3.872608	-6.141743
O	-1.143330	6.141743	-8.879783
O	1.143330	3.872608	-8.879783
O	1.371078	6.376195	-6.376195
O	6.172145	6.141743	-6.141743
O	1.371078	8.645330	-8.645330
O	3.657737	8.645330	-6.376195
O	3.657737	6.376195	-8.645330
Pr	0.000000	5.007175	-5.007175
Pr	2.514408	2.503588	-7.510763
Te	-1.257204	3.755381	-8.762557
Te	3.771611	6.258969	-6.258969
Te	6.286019	3.755381	-6.258969
Te	1.257204	6.258969	-8.762557
O	8.914301	-6.141743	-1.134568
O	3.885486	-3.872608	-3.872608
O	6.172145	-6.141743	-3.872608
O	6.399893	-3.638155	-1.369020
O	11.200960	-3.872608	-1.134568
O	6.399893	-1.369020	-3.638155
O	8.686552	-1.369020	-1.369020
O	8.686552	-3.638155	-3.638155
Pr	5.028815	-5.007175	0.000000
Pr	7.543223	-7.510763	-2.503588
Te	3.771611	-6.258969	-3.755381
Te	8.800427	-3.755381	-1.251794
Te	11.314834	-6.258969	-1.251794
Te	6.286019	-3.755381	-3.755381
O	13.943116	-1.134568	-1.134568
O	8.914301	1.134568	-3.872608
O	11.200960	-1.134568	-3.872608
O	11.428708	1.369020	-1.369020
O	16.229775	1.134568	-1.134568
O	11.428708	3.638155	-3.638155
O	13.715368	3.638155	-1.369020
O	13.715368	1.369020	-3.638155
Pr	10.057630	0.000000	0.000000
Pr	12.572038	-2.503588	-2.503588
Te	8.800427	-1.251794	-3.755381
Te	13.829242	1.251794	-1.251794
Te	16.343649	-1.251794	-1.251794
Te	11.314834	1.251794	-3.755381
O	3.885486	-6.141743	-6.141743
O	-1.143330	-3.872608	-8.879783
O	1.143330	-6.141743	-8.879783
O	1.371078	-3.638155	-6.376195
O	6.172145	-3.872608	-6.141743
O	1.371078	-1.369020	-8.645330
O	3.657737	-1.369020	-6.376195
O	3.657737	-3.638155	-8.645330
Pr	0.000000	-5.007175	-5.007175
Pr	2.514408	-7.510763	-7.510763
Te	-1.257204	-6.258969	-8.762557
Te	3.771611	-3.755381	-6.258969
Te	6.286019	-6.258969	-6.258969
Te	1.257204	-3.755381	-8.762557
O	8.914301	-1.134568	-6.141743
O	3.885486	1.134568	-8.879783
O	6.172145	-1.134568	-8.879783
O	6.399893	1.369020	-6.376195
O	11.200960	1.134568	-6.141743
O	6.399893	3.638155	-8.645330
O	8.686552	3.638155	-6.376195
O	8.686552	1.369020	-8.645330
Pr	5.028815	0.000000	-5.007175
Pr	7.543223	-2.503588	-7.510763
Te	3.771611	-1.251794	-8.762557
Te	8.800427	1.251794	-6.258969
Te	11.314834	-1.251794	-6.258969
Te	6.286019	1.251794	-8.762557
