112

Nb	0.000000	0.000000	0.000000
Nb	2.290083	-2.291445	-2.291445
O	1.134870	1.136929	-1.136929
O	3.424953	-1.154516	-1.154516
O	-1.155204	1.154516	-3.428373
O	1.155204	-1.154516	-3.428373
O	1.134870	3.445961	-3.445961
O	3.445287	3.445961	-1.136929
O	3.445287	1.136929	-3.445961
O	5.735371	1.154516	-1.154516
Yb	-1.145042	-1.145722	-3.437167
Yb	5.725199	-1.145722	-1.145722
Yb	1.145042	1.145722	-3.437167
Yb	3.435125	1.145722	-1.145722
Nb	4.580161	4.582891	0.000000
Nb	6.870245	2.291446	-2.291445
O	5.715031	5.719819	-1.136929
O	8.005114	3.428374	-1.154516
O	3.424957	5.737407	-3.428373
O	5.735365	3.428374	-3.428373
O	5.715031	8.028851	-3.445961
O	8.025449	8.028851	-1.136929
O	8.025449	5.719819	-3.445961
O	10.315532	5.737407	-1.154516
Yb	3.435120	3.437168	-3.437167
Yb	10.305360	3.437168	-1.145722
Yb	5.725203	5.728613	-3.437167
Yb	8.015287	5.728613	-1.145722
Nb	-4.580161	0.000000	-4.582891
Nb	-2.290078	-2.291445	-6.874335
O	-3.445292	1.136929	-5.719819
O	-1.155208	-1.154516	-5.737407
O	-5.735365	1.154516	-8.011264
O	-3.424957	-1.154516	-8.011264
O	-3.445292	3.445961	-8.028851
O	-1.134874	3.445961	-5.719819
O	-1.134874	1.136929	-8.028851
O	1.155210	1.154516	-5.737407
Yb	-5.725203	-1.145722	-8.020058
Yb	1.145037	-1.145722	-5.728613
Yb	-3.435120	1.145722	-8.020058
Yb	-1.145036	1.145722	-5.728613
Nb	0.000000	4.582891	-4.582891
Nb	2.290083	2.291446	-6.874335
O	1.134870	5.719819	-5.719819
O	3.424953	3.428374	-5.737407
O	-1.155204	5.737407	-8.011264
O	1.155204	3.428374	-8.011264
O	1.134870	8.028851	-8.028851
O	3.445287	8.028851	-5.719819
O	3.445287	5.719819	-8.028851
O	5.735371	5.737407	-5.737407
Yb	-1.145042	3.437168	-8.020058
Yb	5.725199	3.437168	-5.728613
Yb	1.145042	5.728613	-8.020058
Yb	3.435125	5.728613	-5.728613
Nb	4.580161	-4.582891	0.000000
Nb	6.870245	-6.874335	-2.291445
O	5.715031	-3.445962	-1.136929
O	8.005114	-5.737407	-1.154516
O	3.424957	-3.428374	-3.428373
O	5.735365	-5.737407	-3.428373
O	5.715031	-1.136930	-3.445961
O	8.025449	-1.136930	-1.136929
O	8.025449	-3.445962	-3.445961
O	10.315532	-3.428374	-1.154516
Yb	3.435120	-5.728613	-3.437167
Yb	10.305360	-5.728613	-1.145722
Yb	5.725203	-3.437168	-3.437167
Yb	8.015287	-3.437168	-1.145722
Nb	9.160323	0.000000	0.000000
Nb	11.450406	-2.291445	-2.291445
O	10.295192	1.136929	-1.136929
O	12.585276	-1.154516	-1.154516
O	8.005119	1.154516	-3.428373
O	10.315527	-1.154516	-3.428373
O	10.295192	3.445961	-3.445961
O	12.605610	3.445961	-1.136929
O	12.605610	1.136929	-3.445961
O	14.895694	1.154516	-1.154516
Yb	8.015281	-1.145722	-3.437167
Yb	14.885522	-1.145722	-1.145722
Yb	10.305365	1.145722	-3.437167
Yb	12.595448	1.145722	-1.145722
Nb	0.000000	-4.582891	-4.582891
Nb	2.290083	-6.874335	-6.874335
O	1.134870	-3.445962	-5.719819
O	3.424953	-5.737407	-5.737407
O	-1.155204	-3.428374	-8.011264
O	1.155204	-5.737407	-8.011264
O	1.134870	-1.136930	-8.028851
O	3.445287	-1.136930	-5.719819
O	3.445287	-3.445962	-8.028851
O	5.735371	-3.428374	-5.737407
Yb	-1.145042	-5.728613	-8.020058
Yb	5.725199	-5.728613	-5.728613
Yb	1.145042	-3.437168	-8.020058
Yb	3.435125	-3.437168	-5.728613
Nb	4.580161	0.000000	-4.582891
Nb	6.870245	-2.291445	-6.874335
O	5.715031	1.136929	-5.719819
O	8.005114	-1.154516	-5.737407
O	3.424957	1.154516	-8.011264
O	5.735365	-1.154516	-8.011264
O	5.715031	3.445961	-8.028851
O	8.025449	3.445961	-5.719819
O	8.025449	1.136929	-8.028851
O	10.315532	1.154516	-5.737407
Yb	3.435120	-1.145722	-8.020058
Yb	10.305360	-1.145722	-5.728613
Yb	5.725203	1.145722	-8.020058
Yb	8.015287	1.145722	-5.728613
