112

Mo	0.000000	0.000000	0.000000
Mo	2.257473	-2.258419	-2.258419
O	1.071699	1.072357	-1.072357
O	-1.185784	1.186062	-3.330776
O	3.329172	-1.186062	-1.186062
O	1.185784	-1.186062	-3.330776
O	1.071699	3.444481	-3.444481
O	3.443257	1.072357	-3.444481
O	3.443257	3.444481	-1.072357
O	5.700730	1.186062	-1.186062
Pt	-1.128737	-1.129204	-3.387623
Pt	3.386210	1.129204	-1.129204
Pt	1.128737	1.129204	-3.387623
Pt	5.643693	-1.129204	-1.129204
Mo	4.514952	4.516836	0.000000
Mo	6.772425	2.258418	-2.258419
O	5.586652	5.589193	-1.072357
O	3.329168	5.702898	-3.330776
O	7.844125	3.330774	-1.186062
O	5.700736	3.330774	-3.330776
O	5.586652	7.961317	-3.444481
O	7.958209	5.589193	-3.444481
O	7.958209	7.961317	-1.072357
O	10.215682	5.702898	-1.186062
Pt	3.386216	3.387632	-3.387623
Pt	7.901162	5.646041	-1.129204
Pt	5.643689	5.646041	-3.387623
Pt	10.158645	3.387632	-1.129204
Mo	-4.514952	0.000000	-4.516836
Mo	-2.257479	-2.258419	-6.775255
O	-3.443253	1.072357	-5.589193
O	-5.700736	1.186062	-7.847612
O	-1.185780	-1.186062	-5.702898
O	-3.329168	-1.186062	-7.847612
O	-3.443253	3.444481	-7.961317
O	-1.071695	1.072357	-7.961317
O	-1.071695	3.444481	-5.589193
O	1.185778	1.186062	-5.702898
Pt	-5.643689	-1.129204	-7.904460
Pt	-1.128743	1.129204	-5.646041
Pt	-3.386216	1.129204	-7.904460
Pt	1.128741	-1.129204	-5.646041
Mo	0.000000	4.516836	-4.516836
Mo	2.257473	2.258418	-6.775255
O	1.071699	5.589193	-5.589193
O	-1.185784	5.702898	-7.847612
O	3.329172	3.330774	-5.702898
O	1.185784	3.330774	-7.847612
O	1.071699	7.961317	-7.961317
O	3.443257	5.589193	-7.961317
O	3.443257	7.961317	-5.589193
O	5.700730	5.702898	-5.702898
Pt	-1.128737	3.387632	-7.904460
Pt	3.386210	5.646041	-5.646041
Pt	1.128737	5.646041	-7.904460
Pt	5.643693	3.387632	-5.646041
Mo	4.514952	-4.516836	0.000000
Mo	6.772425	-6.775255	-2.258419
O	5.586652	-3.444480	-1.072357
O	3.329168	-3.330774	-3.330776
O	7.844125	-5.702898	-1.186062
O	5.700736	-5.702898	-3.330776
O	5.586652	-1.072356	-3.444481
O	7.958209	-3.444480	-3.444481
O	7.958209	-1.072356	-1.072357
O	10.215682	-3.330774	-1.186062
Pt	3.386216	-5.646041	-3.387623
Pt	7.901162	-3.387632	-1.129204
Pt	5.643689	-3.387632	-3.387623
Pt	10.158645	-5.646041	-1.129204
Mo	9.029904	0.000000	0.000000
Mo	11.287378	-2.258419	-2.258419
O	10.101604	1.072357	-1.072357
O	7.844121	1.186062	-3.330776
O	12.359077	-1.186062	-1.186062
O	10.215688	-1.186062	-3.330776
O	10.101604	3.444481	-3.444481
O	12.473161	1.072357	-3.444481
O	12.473161	3.444481	-1.072357
O	14.730634	1.186062	-1.186062
Pt	7.901168	-1.129204	-3.387623
Pt	12.416114	1.129204	-1.129204
Pt	10.158641	1.129204	-3.387623
Pt	14.673597	-1.129204	-1.129204
Mo	0.000000	-4.516836	-4.516836
Mo	2.257473	-6.775255	-6.775255
O	1.071699	-3.444480	-5.589193
O	-1.185784	-3.330774	-7.847612
O	3.329172	-5.702898	-5.702898
O	1.185784	-5.702898	-7.847612
O	1.071699	-1.072356	-7.961317
O	3.443257	-3.444480	-7.961317
O	3.443257	-1.072356	-5.589193
O	5.700730	-3.330774	-5.702898
Pt	-1.128737	-5.646041	-7.904460
Pt	3.386210	-3.387632	-5.646041
Pt	1.128737	-3.387632	-7.904460
Pt	5.643693	-5.646041	-5.646041
Mo	4.514952	0.000000	-4.516836
Mo	6.772425	-2.258419	-6.775255
O	5.586652	1.072357	-5.589193
O	3.329168	1.186062	-7.847612
O	7.844125	-1.186062	-5.702898
O	5.700736	-1.186062	-7.847612
O	5.586652	3.444481	-7.961317
O	7.958209	1.072357	-7.961317
O	7.958209	3.444481	-5.589193
O	10.215682	1.186062	-5.702898
Pt	3.386216	-1.129204	-7.904460
Pt	7.901162	1.129204	-5.646041
Pt	5.643689	1.129204	-7.904460
Pt	10.158645	-1.129204	-5.646041
