112

Ge	0.000000	0.000000	0.000000
Ge	2.343626	-2.344512	-2.344512
O	1.040059	1.039988	-1.039988
O	1.303557	-1.304524	-3.384499
O	3.383685	-1.304524	-1.304524
O	-1.303557	1.304524	-3.384499
O	3.647183	3.649035	-1.039988
O	3.647183	1.039988	-3.649035
O	1.040059	3.649035	-3.649035
O	5.990799	1.304522	-1.304524
Tl	-1.171813	-1.172256	-3.516767
Tl	3.515429	1.172256	-1.172256
Tl	5.859055	-1.172256	-1.172256
Tl	1.171813	1.172256	-3.516767
Ge	4.687242	4.689022	0.000000
Ge	7.030868	2.344510	-2.344512
O	5.727301	5.729009	-1.039988
O	5.990799	3.384498	-3.384499
O	8.070928	3.384498	-1.304524
O	3.383685	5.993545	-3.384499
O	8.334425	8.338057	-1.039988
O	8.334425	5.729009	-3.649035
O	5.727301	8.338057	-3.649035
O	10.678042	5.993544	-1.304524
Tl	3.515429	3.516766	-3.516767
Tl	8.202671	5.861277	-1.172256
Tl	10.546298	3.516766	-1.172256
Tl	5.859055	5.861277	-3.516767
Ge	-4.687242	0.000000	-4.689022
Ge	-2.343616	-2.344512	-7.033533
O	-3.647183	1.039988	-5.729009
O	-3.383685	-1.304524	-8.073521
O	-1.303557	-1.304524	-5.993545
O	-5.990799	1.304524	-8.073521
O	-1.040059	3.649035	-5.729009
O	-1.040059	1.039988	-8.338057
O	-3.647183	3.649035	-8.338057
O	1.303557	1.304522	-5.993545
Tl	-5.859055	-1.172256	-8.205789
Tl	-1.171813	1.172256	-5.861277
Tl	1.171813	-1.172256	-5.861277
Tl	-3.515429	1.172256	-8.205789
Ge	0.000000	4.689022	-4.689022
Ge	2.343626	2.344510	-7.033533
O	1.040059	5.729009	-5.729009
O	1.303557	3.384498	-8.073521
O	3.383685	3.384498	-5.993545
O	-1.303557	5.993545	-8.073521
O	3.647183	8.338057	-5.729009
O	3.647183	5.729009	-8.338057
O	1.040059	8.338057	-8.338057
O	5.990799	5.993544	-5.993545
Tl	-1.171813	3.516766	-8.205789
Tl	3.515429	5.861277	-5.861277
Tl	5.859055	3.516766	-5.861277
Tl	1.171813	5.861277	-8.205789
Ge	4.687242	-4.689022	0.000000
Ge	7.030868	-7.033533	-2.344512
O	5.727301	-3.649034	-1.039988
O	5.990799	-5.993545	-3.384499
O	8.070928	-5.993545	-1.304524
O	3.383685	-3.384498	-3.384499
O	8.334425	-1.039986	-1.039988
O	8.334425	-3.649034	-3.649035
O	5.727301	-1.039986	-3.649035
O	10.678042	-3.384499	-1.304524
Tl	3.515429	-5.861277	-3.516767
Tl	8.202671	-3.516766	-1.172256
Tl	10.546298	-5.861277	-1.172256
Tl	5.859055	-3.516766	-3.516767
Ge	9.374485	0.000000	0.000000
Ge	11.718111	-2.344512	-2.344512
O	10.414544	1.039988	-1.039988
O	10.678042	-1.304524	-3.384499
O	12.758170	-1.304524	-1.304524
O	8.070928	1.304524	-3.384499
O	13.021668	3.649035	-1.039988
O	13.021668	1.039988	-3.649035
O	10.414544	3.649035	-3.649035
O	15.365284	1.304522	-1.304524
Tl	8.202672	-1.172256	-3.516767
Tl	12.889914	1.172256	-1.172256
Tl	15.233540	-1.172256	-1.172256
Tl	10.546298	1.172256	-3.516767
Ge	0.000000	-4.689022	-4.689022
Ge	2.343626	-7.033533	-7.033533
O	1.040059	-3.649034	-5.729009
O	1.303557	-5.993545	-8.073521
O	3.383685	-5.993545	-5.993545
O	-1.303557	-3.384498	-8.073521
O	3.647183	-1.039986	-5.729009
O	3.647183	-3.649034	-8.338057
O	1.040059	-1.039986	-8.338057
O	5.990799	-3.384499	-5.993545
Tl	-1.171813	-5.861277	-8.205789
Tl	3.515429	-3.516766	-5.861277
Tl	5.859055	-5.861277	-5.861277
Tl	1.171813	-3.516766	-8.205789
Ge	4.687242	0.000000	-4.689022
Ge	7.030868	-2.344512	-7.033533
O	5.727301	1.039988	-5.729009
O	5.990799	-1.304524	-8.073521
O	8.070928	-1.304524	-5.993545
O	3.383685	1.304524	-8.073521
O	8.334425	3.649035	-5.729009
O	8.334425	1.039988	-8.338057
O	5.727301	3.649035	-8.338057
O	10.678042	1.304522	-5.993545
Tl	3.515429	-1.172256	-8.205789
Tl	8.202671	1.172256	-5.861277
Tl	10.546298	-1.172256	-5.861277
Tl	5.859055	1.172256	-8.205789
