40

O	0.000000	2.074812	2.074812
O	2.074812	0.000000	2.074812
O	2.074812	2.074812	0.000000
Rh	0.000000	0.000000	0.000000
Zr	2.074812	2.074812	2.074812
O	0.000000	2.074812	6.224437
O	2.074812	0.000000	6.224437
O	2.074812	2.074812	4.149625
Rh	0.000000	0.000000	4.149625
Zr	2.074812	2.074812	6.224437
O	0.000000	6.224437	2.074812
O	2.074812	4.149625	2.074812
O	2.074812	6.224437	0.000000
Rh	0.000000	4.149625	0.000000
Zr	2.074812	6.224437	2.074812
O	0.000000	6.224437	6.224437
O	2.074812	4.149625	6.224437
O	2.074812	6.224437	4.149625
Rh	0.000000	4.149625	4.149625
Zr	2.074812	6.224437	6.224437
O	4.149625	2.074812	2.074812
O	6.224437	0.000000	2.074812
O	6.224437	2.074812	0.000000
Rh	4.149625	0.000000	0.000000
Zr	6.224437	2.074812	2.074812
O	4.149625	2.074812	6.224437
O	6.224437	0.000000	6.224437
O	6.224437	2.074812	4.149625
Rh	4.149625	0.000000	4.149625
Zr	6.224437	2.074812	6.224437
O	4.149625	6.224437	2.074812
O	6.224437	4.149625	2.074812
O	6.224437	6.224437	0.000000
Rh	4.149625	4.149625	0.000000
Zr	6.224437	6.224437	2.074812
O	4.149625	6.224437	6.224437
O	6.224437	4.149625	6.224437
O	6.224437	6.224437	4.149625
Rh	4.149625	4.149625	4.149625
Zr	6.224437	6.224437	6.224437
