40

Na	2.055826	2.055826	2.055826
O	2.055826	2.055826	0.000000
O	2.055826	0.000000	2.055826
O	0.000000	2.055826	2.055826
Pb	0.000000	0.000000	0.000000
Na	2.055826	2.055826	6.167481
O	2.055826	2.055826	4.111655
O	2.055826	0.000000	6.167481
O	0.000000	2.055826	6.167481
Pb	0.000000	0.000000	4.111655
Na	2.055826	6.167481	2.055826
O	2.055826	6.167481	0.000000
O	2.055826	4.111655	2.055826
O	0.000000	6.167481	2.055826
Pb	0.000000	4.111655	0.000000
Na	2.055826	6.167481	6.167481
O	2.055826	6.167481	4.111655
O	2.055826	4.111655	6.167481
O	0.000000	6.167481	6.167481
Pb	0.000000	4.111655	4.111655
Na	6.167481	2.055826	2.055826
O	6.167481	2.055826	0.000000
O	6.167481	0.000000	2.055826
O	4.111655	2.055826	2.055826
Pb	4.111655	0.000000	0.000000
Na	6.167481	2.055826	6.167481
O	6.167481	2.055826	4.111655
O	6.167481	0.000000	6.167481
O	4.111655	2.055826	6.167481
Pb	4.111655	0.000000	4.111655
Na	6.167481	6.167481	2.055826
O	6.167481	6.167481	0.000000
O	6.167481	4.111655	2.055826
O	4.111655	6.167481	2.055826
Pb	4.111655	4.111655	0.000000
Na	6.167481	6.167481	6.167481
O	6.167481	6.167481	4.111655
O	6.167481	4.111655	6.167481
O	4.111655	6.167481	6.167481
Pb	4.111655	4.111655	4.111655
