40

Lu	2.062278	2.062278	2.062278
O	2.062278	2.062278	0.000000
O	0.000000	2.062278	2.062278
O	2.062278	0.000000	2.062278
W	0.000000	0.000000	0.000000
Lu	2.062278	2.062278	6.186826
O	2.062278	2.062278	4.124548
O	0.000000	2.062278	6.186826
O	2.062278	0.000000	6.186826
W	0.000000	0.000000	4.124548
Lu	2.062278	6.186826	2.062278
O	2.062278	6.186826	0.000000
O	0.000000	6.186826	2.062278
O	2.062278	4.124548	2.062278
W	0.000000	4.124548	0.000000
Lu	2.062278	6.186826	6.186826
O	2.062278	6.186826	4.124548
O	0.000000	6.186826	6.186826
O	2.062278	4.124548	6.186826
W	0.000000	4.124548	4.124548
Lu	6.186826	2.062278	2.062278
O	6.186826	2.062278	0.000000
O	4.124548	2.062278	2.062278
O	6.186826	0.000000	2.062278
W	4.124548	0.000000	0.000000
Lu	6.186826	2.062278	6.186826
O	6.186826	2.062278	4.124548
O	4.124548	2.062278	6.186826
O	6.186826	0.000000	6.186826
W	4.124548	0.000000	4.124548
Lu	6.186826	6.186826	2.062278
O	6.186826	6.186826	0.000000
O	4.124548	6.186826	2.062278
O	6.186826	4.124548	2.062278
W	4.124548	4.124548	0.000000
Lu	6.186826	6.186826	6.186826
O	6.186826	6.186826	4.124548
O	4.124548	6.186826	6.186826
O	6.186826	4.124548	6.186826
W	4.124548	4.124548	4.124548
