40

Fe	1.928220	1.928220	1.928220
O	1.928220	1.928220	0.000000
O	0.000000	1.928220	1.928220
O	1.928220	0.000000	1.928220
Pm	0.000000	0.000000	0.000000
Fe	1.928220	1.928220	5.784653
O	1.928220	1.928220	3.856433
O	0.000000	1.928220	5.784653
O	1.928220	0.000000	5.784653
Pm	0.000000	0.000000	3.856433
Fe	1.928220	5.784653	1.928220
O	1.928220	5.784653	0.000000
O	0.000000	5.784653	1.928220
O	1.928220	3.856433	1.928220
Pm	0.000000	3.856433	0.000000
Fe	1.928220	5.784653	5.784653
O	1.928220	5.784653	3.856433
O	0.000000	5.784653	5.784653
O	1.928220	3.856433	5.784653
Pm	0.000000	3.856433	3.856433
Fe	5.784653	1.928220	1.928220
O	5.784653	1.928220	0.000000
O	3.856433	1.928220	1.928220
O	5.784653	0.000000	1.928220
Pm	3.856433	0.000000	0.000000
Fe	5.784653	1.928220	5.784653
O	5.784653	1.928220	3.856433
O	3.856433	1.928220	5.784653
O	5.784653	0.000000	5.784653
Pm	3.856433	0.000000	3.856433
Fe	5.784653	5.784653	1.928220
O	5.784653	5.784653	0.000000
O	3.856433	5.784653	1.928220
O	5.784653	3.856433	1.928220
Pm	3.856433	3.856433	0.000000
Fe	5.784653	5.784653	5.784653
O	5.784653	5.784653	3.856433
O	3.856433	5.784653	5.784653
O	5.784653	3.856433	5.784653
Pm	3.856433	3.856433	3.856433
