112

O	3.487194	-1.147799	-1.147799
O	-1.148107	1.147799	-3.489599
O	1.148107	-1.147799	-3.489599
O	1.169543	1.170900	-1.170900
O	5.783408	1.147799	-1.147799
O	1.169543	3.466498	-3.466498
O	3.465757	3.466498	-1.170900
O	3.465757	1.170900	-3.466498
Pt	0.000000	0.000000	0.000000
Pt	2.317650	-2.318699	-2.318699
Yb	-1.158825	-1.159349	-3.478048
Yb	3.476476	1.159349	-1.159349
Yb	5.794126	-1.159349	-1.159349
Yb	1.158825	1.159349	-3.478048
O	8.122495	3.489599	-1.147799
O	3.487194	5.785197	-3.489599
O	5.783408	3.489599	-3.489599
O	5.804844	5.808298	-1.170900
O	10.418708	5.785197	-1.147799
O	5.804844	8.103896	-3.466498
O	8.101058	8.103896	-1.170900
O	8.101058	5.808298	-3.466498
Pt	4.635301	4.637398	0.000000
Pt	6.952951	2.318699	-2.318699
Yb	3.476476	3.478048	-3.478048
Yb	8.111776	5.796747	-1.159349
Yb	10.429427	3.478048	-1.159349
Yb	5.794126	5.796747	-3.478048
O	-1.148107	-1.147799	-5.785197
O	-5.783408	1.147799	-8.126997
O	-3.487194	-1.147799	-8.126997
O	-3.465757	1.170900	-5.808298
O	1.148107	1.147799	-5.785197
O	-3.465757	3.466498	-8.103896
O	-1.169543	3.466498	-5.808298
O	-1.169543	1.170900	-8.103896
Pt	-4.635301	0.000000	-4.637398
Pt	-2.317650	-2.318699	-6.956097
Yb	-5.794126	-1.159349	-8.115446
Yb	-1.158825	1.159349	-5.796747
Yb	1.158825	-1.159349	-5.796747
Yb	-3.476476	1.159349	-8.115446
O	3.487194	3.489599	-5.785197
O	-1.148107	5.785197	-8.126997
O	1.148107	3.489599	-8.126997
O	1.169543	5.808298	-5.808298
O	5.783408	5.785197	-5.785197
O	1.169543	8.103896	-8.103896
O	3.465757	8.103896	-5.808298
O	3.465757	5.808298	-8.103896
Pt	0.000000	4.637398	-4.637398
Pt	2.317650	2.318699	-6.956097
Yb	-1.158825	3.478048	-8.115446
Yb	3.476476	5.796747	-5.796747
Yb	5.794126	3.478048	-5.796747
Yb	1.158825	5.796747	-8.115446
O	8.122495	-5.785197	-1.147799
O	3.487194	-3.489599	-3.489599
O	5.783408	-5.785197	-3.489599
O	5.804844	-3.466498	-1.170900
O	10.418708	-3.489599	-1.147799
O	5.804844	-1.170900	-3.466498
O	8.101058	-1.170900	-1.170900
O	8.101058	-3.466498	-3.466498
Pt	4.635301	-4.637398	0.000000
Pt	6.952951	-6.956097	-2.318699
Yb	3.476476	-5.796747	-3.478048
Yb	8.111776	-3.478048	-1.159349
Yb	10.429427	-5.796747	-1.159349
Yb	5.794126	-3.478048	-3.478048
O	12.757795	-1.147799	-1.147799
O	8.122495	1.147799	-3.489599
O	10.418708	-1.147799	-3.489599
O	10.440145	1.170900	-1.170900
O	15.054009	1.147799	-1.147799
O	10.440145	3.466498	-3.466498
O	12.736359	3.466498	-1.170900
O	12.736359	1.170900	-3.466498
Pt	9.270602	0.000000	0.000000
Pt	11.588252	-2.318699	-2.318699
Yb	8.111776	-1.159349	-3.478048
Yb	12.747077	1.159349	-1.159349
Yb	15.064728	-1.159349	-1.159349
Yb	10.429427	1.159349	-3.478048
O	3.487194	-5.785197	-5.785197
O	-1.148107	-3.489599	-8.126997
O	1.148107	-5.785197	-8.126997
O	1.169543	-3.466498	-5.808298
O	5.783408	-3.489599	-5.785197
O	1.169543	-1.170900	-8.103896
O	3.465757	-1.170900	-5.808298
O	3.465757	-3.466498	-8.103896
Pt	0.000000	-4.637398	-4.637398
Pt	2.317650	-6.956097	-6.956097
Yb	-1.158825	-5.796747	-8.115446
Yb	3.476476	-3.478048	-5.796747
Yb	5.794126	-5.796747	-5.796747
Yb	1.158825	-3.478048	-8.115446
O	8.122495	-1.147799	-5.785197
O	3.487194	1.147799	-8.126997
O	5.783408	-1.147799	-8.126997
O	5.804844	1.170900	-5.808298
O	10.418708	1.147799	-5.785197
O	5.804844	3.466498	-8.103896
O	8.101058	3.466498	-5.808298
O	8.101058	1.170900	-8.103896
Pt	4.635301	0.000000	-4.637398
Pt	6.952951	-2.318699	-6.956097
Yb	3.476476	-1.159349	-8.115446
Yb	8.111776	1.159349	-5.796747
Yb	10.429427	-1.159349	-5.796747
Yb	5.794126	1.159349	-8.115446
