112

Mn	0.000000	0.000000	0.000000
Mn	2.164844	-2.164844	-2.164844
O	3.353348	-0.976339	-0.976339
O	-0.976339	0.976339	-3.353348
O	0.976339	-0.976339	-3.353348
O	1.188504	1.188504	-1.188504
O	5.306026	0.976339	-0.976339
O	3.141183	3.141183	-1.188504
O	1.188504	3.141183	-3.141183
O	3.141183	1.188504	-3.141183
Rh	-1.082422	-1.082422	-3.247265
Rh	3.247265	1.082422	-1.082422
Rh	5.412109	-1.082422	-1.082422
Rh	1.082422	1.082422	-3.247265
Mn	4.329687	4.329687	0.000000
Mn	6.494531	2.164844	-2.164844
O	7.683035	3.353348	-0.976339
O	3.353348	5.306026	-3.353348
O	5.306026	3.353348	-3.353348
O	5.518191	5.518191	-1.188504
O	9.635713	5.306026	-0.976339
O	7.470870	7.470870	-1.188504
O	5.518191	7.470870	-3.141183
O	7.470870	5.518191	-3.141183
Rh	3.247265	3.247265	-3.247265
Rh	7.576952	5.412109	-1.082422
Rh	9.741796	3.247265	-1.082422
Rh	5.412109	5.412109	-3.247265
Mn	-4.329687	0.000000	-4.329687
Mn	-2.164844	-2.164844	-6.494531
O	-0.976339	-0.976339	-5.306026
O	-5.306026	0.976339	-7.683035
O	-3.353348	-0.976339	-7.683035
O	-3.141183	1.188504	-5.518191
O	0.976339	0.976339	-5.306026
O	-1.188504	3.141183	-5.518191
O	-3.141183	3.141183	-7.470870
O	-1.188504	1.188504	-7.470870
Rh	-5.412109	-1.082422	-7.576952
Rh	-1.082422	1.082422	-5.412109
Rh	1.082422	-1.082422	-5.412109
Rh	-3.247265	1.082422	-7.576952
Mn	0.000000	4.329687	-4.329687
Mn	2.164844	2.164844	-6.494531
O	3.353348	3.353348	-5.306026
O	-0.976339	5.306026	-7.683035
O	0.976339	3.353348	-7.683035
O	1.188504	5.518191	-5.518191
O	5.306026	5.306026	-5.306026
O	3.141183	7.470870	-5.518191
O	1.188504	7.470870	-7.470870
O	3.141183	5.518191	-7.470870
Rh	-1.082422	3.247265	-7.576952
Rh	3.247265	5.412109	-5.412109
Rh	5.412109	3.247265	-5.412109
Rh	1.082422	5.412109	-7.576952
Mn	4.329687	-4.329687	0.000000
Mn	6.494531	-6.494531	-2.164844
O	7.683035	-5.306026	-0.976339
O	3.353348	-3.353348	-3.353348
O	5.306026	-5.306026	-3.353348
O	5.518191	-3.141183	-1.188504
O	9.635713	-3.353348	-0.976339
O	7.470870	-1.188504	-1.188504
O	5.518191	-1.188504	-3.141183
O	7.470870	-3.141183	-3.141183
Rh	3.247265	-5.412109	-3.247265
Rh	7.576952	-3.247265	-1.082422
Rh	9.741796	-5.412109	-1.082422
Rh	5.412109	-3.247265	-3.247265
Mn	8.659374	0.000000	0.000000
Mn	10.824218	-2.164844	-2.164844
O	12.012722	-0.976339	-0.976339
O	7.683035	0.976339	-3.353348
O	9.635713	-0.976339	-3.353348
O	9.847879	1.188504	-1.188504
O	13.965400	0.976339	-0.976339
O	11.800557	3.141183	-1.188504
O	9.847879	3.141183	-3.141183
O	11.800557	1.188504	-3.141183
Rh	7.576952	-1.082422	-3.247265
Rh	11.906639	1.082422	-1.082422
Rh	14.071483	-1.082422	-1.082422
Rh	9.741796	1.082422	-3.247265
Mn	0.000000	-4.329687	-4.329687
Mn	2.164844	-6.494531	-6.494531
O	3.353348	-5.306026	-5.306026
O	-0.976339	-3.353348	-7.683035
O	0.976339	-5.306026	-7.683035
O	1.188504	-3.141183	-5.518191
O	5.306026	-3.353348	-5.306026
O	3.141183	-1.188504	-5.518191
O	1.188504	-1.188504	-7.470870
O	3.141183	-3.141183	-7.470870
Rh	-1.082422	-5.412109	-7.576952
Rh	3.247265	-3.247265	-5.412109
Rh	5.412109	-5.412109	-5.412109
Rh	1.082422	-3.247265	-7.576952
Mn	4.329687	0.000000	-4.329687
Mn	6.494531	-2.164844	-6.494531
O	7.683035	-0.976339	-5.306026
O	3.353348	0.976339	-7.683035
O	5.306026	-0.976339	-7.683035
O	5.518191	1.188504	-5.518191
O	9.635713	0.976339	-5.306026
O	7.470870	3.141183	-5.518191
O	5.518191	3.141183	-7.470870
O	7.470870	1.188504	-7.470870
Rh	3.247265	-1.082422	-7.576952
Rh	7.576952	1.082422	-5.412109
Rh	9.741796	-1.082422	-5.412109
Rh	5.412109	1.082422	-7.576952
