40

Al	1.858016	1.858016	1.858016
O	1.858016	1.858016	0.000000
O	1.858016	0.000000	1.858016
O	0.000000	1.858016	1.858016
Tb	0.000000	0.000000	0.000000
Al	1.858016	1.858016	5.574047
O	1.858016	1.858016	3.716031
O	1.858016	0.000000	5.574047
O	0.000000	1.858016	5.574047
Tb	0.000000	0.000000	3.716031
Al	1.858016	5.574047	1.858016
O	1.858016	5.574047	0.000000
O	1.858016	3.716031	1.858016
O	0.000000	5.574047	1.858016
Tb	0.000000	3.716031	0.000000
Al	1.858016	5.574047	5.574047
O	1.858016	5.574047	3.716031
O	1.858016	3.716031	5.574047
O	0.000000	5.574047	5.574047
Tb	0.000000	3.716031	3.716031
Al	5.574047	1.858016	1.858016
O	5.574047	1.858016	0.000000
O	5.574047	0.000000	1.858016
O	3.716031	1.858016	1.858016
Tb	3.716031	0.000000	0.000000
Al	5.574047	1.858016	5.574047
O	5.574047	1.858016	3.716031
O	5.574047	0.000000	5.574047
O	3.716031	1.858016	5.574047
Tb	3.716031	0.000000	3.716031
Al	5.574047	5.574047	1.858016
O	5.574047	5.574047	0.000000
O	5.574047	3.716031	1.858016
O	3.716031	5.574047	1.858016
Tb	3.716031	3.716031	0.000000
Al	5.574047	5.574047	5.574047
O	5.574047	5.574047	3.716031
O	5.574047	3.716031	5.574047
O	3.716031	5.574047	5.574047
Tb	3.716031	3.716031	3.716031
