40

Hf	2.044950	2.044950	2.044950
Hg	0.000000	0.000000	0.000000
O	2.044950	0.000000	2.044950
O	0.000000	2.044950	2.044950
O	2.044950	2.044950	0.000000
Hf	2.044950	2.044950	6.134842
Hg	0.000000	0.000000	4.089892
O	2.044950	0.000000	6.134842
O	0.000000	2.044950	6.134842
O	2.044950	2.044950	4.089892
Hf	2.044950	6.134842	2.044950
Hg	0.000000	4.089892	0.000000
O	2.044950	4.089892	2.044950
O	0.000000	6.134842	2.044950
O	2.044950	6.134842	0.000000
Hf	2.044950	6.134842	6.134842
Hg	0.000000	4.089892	4.089892
O	2.044950	4.089892	6.134842
O	0.000000	6.134842	6.134842
O	2.044950	6.134842	4.089892
Hf	6.134842	2.044950	2.044950
Hg	4.089892	0.000000	0.000000
O	6.134842	0.000000	2.044950
O	4.089892	2.044950	2.044950
O	6.134842	2.044950	0.000000
Hf	6.134842	2.044950	6.134842
Hg	4.089892	0.000000	4.089892
O	6.134842	0.000000	6.134842
O	4.089892	2.044950	6.134842
O	6.134842	2.044950	4.089892
Hf	6.134842	6.134842	2.044950
Hg	4.089892	4.089892	0.000000
O	6.134842	4.089892	2.044950
O	4.089892	6.134842	2.044950
O	6.134842	6.134842	0.000000
Hf	6.134842	6.134842	6.134842
Hg	4.089892	4.089892	4.089892
O	6.134842	4.089892	6.134842
O	4.089892	6.134842	6.134842
O	6.134842	6.134842	4.089892
