40

Np	0.000000	0.000000	0.000000
O	2.221833	2.221833	0.000000
O	2.221833	0.000000	2.221833
O	0.000000	2.221833	2.221833
Sr	2.221833	2.221833	2.221833
Np	0.000000	0.000000	4.443665
O	2.221833	2.221833	4.443665
O	2.221833	0.000000	6.665498
O	0.000000	2.221833	6.665498
Sr	2.221833	2.221833	6.665498
Np	0.000000	4.443665	0.000000
O	2.221833	6.665498	0.000000
O	2.221833	4.443665	2.221833
O	0.000000	6.665498	2.221833
Sr	2.221833	6.665498	2.221833
Np	0.000000	4.443665	4.443665
O	2.221833	6.665498	4.443665
O	2.221833	4.443665	6.665498
O	0.000000	6.665498	6.665498
Sr	2.221833	6.665498	6.665498
Np	4.443665	0.000000	0.000000
O	6.665498	2.221833	0.000000
O	6.665498	0.000000	2.221833
O	4.443665	2.221833	2.221833
Sr	6.665498	2.221833	2.221833
Np	4.443665	0.000000	4.443665
O	6.665498	2.221833	4.443665
O	6.665498	0.000000	6.665498
O	4.443665	2.221833	6.665498
Sr	6.665498	2.221833	6.665498
Np	4.443665	4.443665	0.000000
O	6.665498	6.665498	0.000000
O	6.665498	4.443665	2.221833
O	4.443665	6.665498	2.221833
Sr	6.665498	6.665498	2.221833
Np	4.443665	4.443665	4.443665
O	6.665498	6.665498	4.443665
O	6.665498	4.443665	6.665498
O	4.443665	6.665498	6.665498
Sr	6.665498	6.665498	6.665498
