40

O	2.010650	2.010650	0.000000
O	0.000000	2.010650	2.010650
O	2.010650	0.000000	2.010650
Pu	0.000000	0.000000	0.000000
Sc	2.010650	2.010650	2.010650
O	2.010650	2.010650	4.021288
O	0.000000	2.010650	6.031938
O	2.010650	0.000000	6.031938
Pu	0.000000	0.000000	4.021288
Sc	2.010650	2.010650	6.031938
O	2.010650	6.031938	0.000000
O	0.000000	6.031938	2.010650
O	2.010650	4.021288	2.010650
Pu	0.000000	4.021288	0.000000
Sc	2.010650	6.031938	2.010650
O	2.010650	6.031938	4.021288
O	0.000000	6.031938	6.031938
O	2.010650	4.021288	6.031938
Pu	0.000000	4.021288	4.021288
Sc	2.010650	6.031938	6.031938
O	6.031938	2.010650	0.000000
O	4.021288	2.010650	2.010650
O	6.031938	0.000000	2.010650
Pu	4.021288	0.000000	0.000000
Sc	6.031938	2.010650	2.010650
O	6.031938	2.010650	4.021288
O	4.021288	2.010650	6.031938
O	6.031938	0.000000	6.031938
Pu	4.021288	0.000000	4.021288
Sc	6.031938	2.010650	6.031938
O	6.031938	6.031938	0.000000
O	4.021288	6.031938	2.010650
O	6.031938	4.021288	2.010650
Pu	4.021288	4.021288	0.000000
Sc	6.031938	6.031938	2.010650
O	6.031938	6.031938	4.021288
O	4.021288	6.031938	6.031938
O	6.031938	4.021288	6.031938
Pu	4.021288	4.021288	4.021288
Sc	6.031938	6.031938	6.031938
