40

B	0.000000	0.000000	0.000000
O	2.134140	0.000000	2.134140
O	0.000000	2.134140	2.134140
O	2.134140	2.134140	0.000000
U	2.134140	2.134140	2.134140
B	0.000000	0.000000	4.268266
O	2.134140	0.000000	6.402406
O	0.000000	2.134140	6.402406
O	2.134140	2.134140	4.268266
U	2.134140	2.134140	6.402406
B	0.000000	4.268266	0.000000
O	2.134140	4.268266	2.134140
O	0.000000	6.402406	2.134140
O	2.134140	6.402406	0.000000
U	2.134140	6.402406	2.134140
B	0.000000	4.268266	4.268266
O	2.134140	4.268266	6.402406
O	0.000000	6.402406	6.402406
O	2.134140	6.402406	4.268266
U	2.134140	6.402406	6.402406
B	4.268266	0.000000	0.000000
O	6.402406	0.000000	2.134140
O	4.268266	2.134140	2.134140
O	6.402406	2.134140	0.000000
U	6.402406	2.134140	2.134140
B	4.268266	0.000000	4.268266
O	6.402406	0.000000	6.402406
O	4.268266	2.134140	6.402406
O	6.402406	2.134140	4.268266
U	6.402406	2.134140	6.402406
B	4.268266	4.268266	0.000000
O	6.402406	4.268266	2.134140
O	4.268266	6.402406	2.134140
O	6.402406	6.402406	0.000000
U	6.402406	6.402406	2.134140
B	4.268266	4.268266	4.268266
O	6.402406	4.268266	6.402406
O	4.268266	6.402406	6.402406
O	6.402406	6.402406	4.268266
U	6.402406	6.402406	6.402406
