40

Au	2.077663	2.077663	2.077663
O	2.077663	2.077663	0.000000
O	0.000000	2.077663	2.077663
O	2.077663	0.000000	2.077663
Th	0.000000	0.000000	0.000000
Au	2.077663	2.077663	6.232990
O	2.077663	2.077663	4.155327
O	0.000000	2.077663	6.232990
O	2.077663	0.000000	6.232990
Th	0.000000	0.000000	4.155327
Au	2.077663	6.232990	2.077663
O	2.077663	6.232990	0.000000
O	0.000000	6.232990	2.077663
O	2.077663	4.155327	2.077663
Th	0.000000	4.155327	0.000000
Au	2.077663	6.232990	6.232990
O	2.077663	6.232990	4.155327
O	0.000000	6.232990	6.232990
O	2.077663	4.155327	6.232990
Th	0.000000	4.155327	4.155327
Au	6.232990	2.077663	2.077663
O	6.232990	2.077663	0.000000
O	4.155327	2.077663	2.077663
O	6.232990	0.000000	2.077663
Th	4.155327	0.000000	0.000000
Au	6.232990	2.077663	6.232990
O	6.232990	2.077663	4.155327
O	4.155327	2.077663	6.232990
O	6.232990	0.000000	6.232990
Th	4.155327	0.000000	4.155327
Au	6.232990	6.232990	2.077663
O	6.232990	6.232990	0.000000
O	4.155327	6.232990	2.077663
O	6.232990	4.155327	2.077663
Th	4.155327	4.155327	0.000000
Au	6.232990	6.232990	6.232990
O	6.232990	6.232990	4.155327
O	4.155327	6.232990	6.232990
O	6.232990	4.155327	6.232990
Th	4.155327	4.155327	4.155327
