40

O	2.287738	2.287738	0.000000
O	2.287738	0.000000	2.287738
O	0.000000	2.287738	2.287738
Pu	0.000000	0.000000	0.000000
Th	2.287738	2.287738	2.287738
O	2.287738	2.287738	4.575472
O	2.287738	0.000000	6.863210
O	0.000000	2.287738	6.863210
Pu	0.000000	0.000000	4.575472
Th	2.287738	2.287738	6.863210
O	2.287738	6.863210	0.000000
O	2.287738	4.575472	2.287738
O	0.000000	6.863210	2.287738
Pu	0.000000	4.575472	0.000000
Th	2.287738	6.863210	2.287738
O	2.287738	6.863210	4.575472
O	2.287738	4.575472	6.863210
O	0.000000	6.863210	6.863210
Pu	0.000000	4.575472	4.575472
Th	2.287738	6.863210	6.863210
O	6.863210	2.287738	0.000000
O	6.863210	0.000000	2.287738
O	4.575472	2.287738	2.287738
Pu	4.575472	0.000000	0.000000
Th	6.863210	2.287738	2.287738
O	6.863210	2.287738	4.575472
O	6.863210	0.000000	6.863210
O	4.575472	2.287738	6.863210
Pu	4.575472	0.000000	4.575472
Th	6.863210	2.287738	6.863210
O	6.863210	6.863210	0.000000
O	6.863210	4.575472	2.287738
O	4.575472	6.863210	2.287738
Pu	4.575472	4.575472	0.000000
Th	6.863210	6.863210	2.287738
O	6.863210	6.863210	4.575472
O	6.863210	4.575472	6.863210
O	4.575472	6.863210	6.863210
Pu	4.575472	4.575472	4.575472
Th	6.863210	6.863210	6.863210
