40

Mn	0.000000	0.000000	0.000000
O	1.985810	1.985810	0.000000
O	0.000000	1.985810	1.985810
O	1.985810	0.000000	1.985810
Ta_pv	1.985810	1.985810	1.985810
Mn	0.000000	0.000000	3.971636
O	1.985810	1.985810	3.971636
O	0.000000	1.985810	5.957446
O	1.985810	0.000000	5.957446
Ta_pv	1.985810	1.985810	5.957446
Mn	0.000000	3.971636	0.000000
O	1.985810	5.957446	0.000000
O	0.000000	5.957446	1.985810
O	1.985810	3.971636	1.985810
Ta_pv	1.985810	5.957446	1.985810
Mn	0.000000	3.971636	3.971636
O	1.985810	5.957446	3.971636
O	0.000000	5.957446	5.957446
O	1.985810	3.971636	5.957446
Ta_pv	1.985810	5.957446	5.957446
Mn	3.971636	0.000000	0.000000
O	5.957446	1.985810	0.000000
O	3.971636	1.985810	1.985810
O	5.957446	0.000000	1.985810
Ta_pv	5.957446	1.985810	1.985810
Mn	3.971636	0.000000	3.971636
O	5.957446	1.985810	3.971636
O	3.971636	1.985810	5.957446
O	5.957446	0.000000	5.957446
Ta_pv	5.957446	1.985810	5.957446
Mn	3.971636	3.971636	0.000000
O	5.957446	5.957446	0.000000
O	3.971636	5.957446	1.985810
O	5.957446	3.971636	1.985810
Ta_pv	5.957446	5.957446	1.985810
Mn	3.971636	3.971636	3.971636
O	5.957446	5.957446	3.971636
O	3.971636	5.957446	5.957446
O	5.957446	3.971636	5.957446
Ta_pv	5.957446	5.957446	5.957446
