40

Ir	1.954728	1.954728	1.954728
O	1.954728	1.954728	0.000000
O	1.954728	0.000000	1.954728
O	0.000000	1.954728	1.954728
Zn	0.000000	0.000000	0.000000
Ir	1.954728	1.954728	5.864180
O	1.954728	1.954728	3.909452
O	1.954728	0.000000	5.864180
O	0.000000	1.954728	5.864180
Zn	0.000000	0.000000	3.909452
Ir	1.954728	5.864180	1.954728
O	1.954728	5.864180	0.000000
O	1.954728	3.909452	1.954728
O	0.000000	5.864180	1.954728
Zn	0.000000	3.909452	0.000000
Ir	1.954728	5.864180	5.864180
O	1.954728	5.864180	3.909452
O	1.954728	3.909452	5.864180
O	0.000000	5.864180	5.864180
Zn	0.000000	3.909452	3.909452
Ir	5.864180	1.954728	1.954728
O	5.864180	1.954728	0.000000
O	5.864180	0.000000	1.954728
O	3.909452	1.954728	1.954728
Zn	3.909452	0.000000	0.000000
Ir	5.864180	1.954728	5.864180
O	5.864180	1.954728	3.909452
O	5.864180	0.000000	5.864180
O	3.909452	1.954728	5.864180
Zn	3.909452	0.000000	3.909452
Ir	5.864180	5.864180	1.954728
O	5.864180	5.864180	0.000000
O	5.864180	3.909452	1.954728
O	3.909452	5.864180	1.954728
Zn	3.909452	3.909452	0.000000
Ir	5.864180	5.864180	5.864180
O	5.864180	5.864180	3.909452
O	5.864180	3.909452	5.864180
O	3.909452	5.864180	5.864180
Zn	3.909452	3.909452	3.909452
