320

Gd	0.000000	5.392503	-2.696251
Gd	2.696251	5.392503	0.000000
Gd	0.000000	2.696251	-5.392503
Gd	5.392503	2.696251	0.000000
Gd	2.696251	-0.000000	-5.392503
Gd	5.392503	-0.000000	-2.696251
O	-1.096578	4.219477	-1.096578
O	1.096578	4.219477	1.096578
O	-1.490821	7.132419	-1.490821
O	1.490821	7.132419	1.490821
O	1.096578	6.565529	-1.096578
O	-1.739917	3.901682	-3.901682
O	3.901682	3.901682	1.739917
O	1.490821	3.652586	-1.490821
O	-1.096578	1.096578	-4.219477
O	4.219477	1.096578	1.096578
O	1.490821	1.490821	-3.652586
O	3.652586	1.490821	-1.490821
O	1.096578	-1.096578	-4.219477
O	4.219477	-1.096578	-1.096578
O	1.173026	4.295925	-4.295925
O	4.295925	4.295925	-1.173026
O	-1.490821	1.490821	-7.132419
O	7.132419	1.490821	1.490821
O	1.096578	1.096578	-6.565529
O	6.565529	1.096578	-1.096578
O	3.901682	-1.739917	-3.901682
O	1.490821	-1.490821	-7.132419
O	7.132419	-1.490821	-1.490821
O	4.295925	1.173026	-4.295925
Sb	2.600218	2.600218	2.600218
Sb	-2.600218	2.600218	-2.600218
Sb	0.000000	-0.000000	-2.982760
Sb	2.982760	-0.000000	-0.000000
Sb	2.600218	-2.600218	-2.600218
Sb	2.792285	2.792285	-2.792285
Sb	0.000000	-0.000000	-7.802245
Sb	7.802245	-0.000000	-0.000000
Sb	0.000000	2.982760	0.000000
Sb	0.000000	7.802245	0.000000
Gd	5.392503	0.000000	-8.088754
Gd	8.088754	0.000000	-5.392503
Gd	5.392503	-2.696251	-10.785005
Gd	10.785005	-2.696251	-5.392503
Gd	8.088754	-5.392503	-10.785005
Gd	10.785005	-5.392503	-8.088754
O	4.295925	-1.173026	-6.489080
O	6.489080	-1.173026	-4.295925
O	3.901682	1.739917	-6.883323
O	6.883323	1.739917	-3.901682
O	6.489080	1.173026	-6.489080
O	3.652586	-1.490821	-9.294185
O	9.294185	-1.490821	-3.652586
O	6.883323	-1.739917	-6.883323
O	4.295925	-4.295925	-9.611980
O	9.611980	-4.295925	-4.295925
O	6.883323	-3.901682	-9.045089
O	9.045089	-3.901682	-6.883323
O	6.489080	-6.489080	-9.611980
O	9.611980	-6.489080	-6.489080
O	6.565529	-1.096578	-9.688428
O	9.688428	-1.096578	-6.565529
O	3.901682	-3.901682	-12.524922
O	12.524922	-3.901682	-3.901682
O	6.489080	-4.295925	-11.958031
O	11.958031	-4.295925	-6.489080
O	9.294185	-7.132419	-9.294185
O	6.883323	-6.883323	-12.524922
O	12.524922	-6.883323	-6.883323
O	9.688428	-4.219477	-9.688428
Sb	7.992721	-2.792285	-2.792285
Sb	2.792285	-2.792285	-7.992721
Sb	5.392503	-5.392503	-8.375263
Sb	8.375263	-5.392503	-5.392503
Sb	7.992721	-7.992721	-7.992721
Sb	8.184787	-2.600218	-8.184787
Sb	5.392503	-5.392503	-13.194748
Sb	13.194748	-5.392503	-5.392503
Sb	5.392503	-2.409742	-5.392503
Sb	5.392503	2.409742	-5.392503
Gd	5.392503	10.785005	2.696251
Gd	8.088754	10.785005	5.392503
Gd	5.392503	8.088754	0.000000
Gd	10.785005	8.088754	5.392503
Gd	8.088754	5.392503	0.000000
Gd	10.785005	5.392503	2.696251
O	4.295925	9.611980	4.295925
O	6.489080	9.611980	6.489080
O	3.901682	12.524922	3.901682
O	6.883323	12.524922	6.883323
O	6.489080	11.958031	4.295925
O	3.652586	9.294185	1.490821
O	9.294185	9.294185	7.132419
O	6.883323	9.045089	3.901682
O	4.295925	6.489080	1.173026
O	9.611980	6.489080	6.489080
O	6.883323	6.883323	1.739917
O	9.045089	6.883323	3.901682
O	6.489080	4.295925	1.173026
O	9.611980	4.295925	4.295925
O	6.565529	9.688428	1.096578
O	9.688428	9.688428	4.219477
O	3.901682	6.883323	-1.739917
O	12.524922	6.883323	6.883323
O	6.489080	6.489080	-1.173026
O	11.958031	6.489080	4.295925
O	9.294185	3.652586	1.490821
O	6.883323	3.901682	-1.739917
O	12.524922	3.901682	3.901682
O	9.688428	6.565529	1.096578
Sb	7.992721	7.992721	7.992721
Sb	2.792285	7.992721	2.792285
Sb	5.392503	5.392503	2.409742
Sb	8.375263	5.392503	5.392503
Sb	7.992721	2.792285	2.792285
Sb	8.184787	8.184787	2.600218
Sb	5.392503	5.392503	-2.409742
Sb	13.194748	5.392503	5.392503
Sb	5.392503	8.375263	5.392503
Sb	5.392503	13.194748	5.392503
Gd	10.785005	5.392503	-2.696251
Gd	13.481257	5.392503	0.000000
Gd	10.785005	2.696251	-5.392503
Gd	16.177508	2.696251	0.000000
Gd	13.481257	0.000000	-5.392503
Gd	16.177508	0.000000	-2.696251
O	9.688428	4.219477	-1.096578
O	11.881583	4.219477	1.096578
O	9.294185	7.132419	-1.490821
O	12.275826	7.132419	1.490821
O	11.881583	6.565529	-1.096578
O	9.045089	3.901682	-3.901682
O	14.686688	3.901682	1.739917
O	12.275826	3.652586	-1.490821
O	9.688428	1.096578	-4.219477
O	15.004482	1.096578	1.096578
O	12.275826	1.490821	-3.652586
O	14.437591	1.490821	-1.490821
O	11.881583	-1.096578	-4.219477
O	15.004482	-1.096578	-1.096578
O	11.958031	4.295925	-4.295925
O	15.080930	4.295925	-1.173026
O	9.294185	1.490821	-7.132419
O	17.917425	1.490821	1.490821
O	11.881583	1.096578	-6.565529
O	17.350534	1.096578	-1.096578
O	14.686688	-1.739917	-3.901682
O	12.275826	-1.490821	-7.132419
O	17.917425	-1.490821	-1.490821
O	15.080930	1.173026	-4.295925
Sb	13.385224	2.600218	2.600218
Sb	8.184787	2.600218	-2.600218
Sb	10.785005	0.000000	-2.982760
Sb	13.767766	0.000000	0.000000
Sb	13.385224	-2.600218	-2.600218
Sb	13.577290	2.792285	-2.792285
Sb	10.785005	0.000000	-7.802245
Sb	18.587250	0.000000	0.000000
Sb	10.785005	2.982760	0.000000
Sb	10.785005	7.802245	0.000000
Gd	-5.392503	10.785005	-8.088754
Gd	-2.696251	10.785005	-5.392503
Gd	-5.392503	8.088754	-10.785005
Gd	0.000000	8.088754	-5.392503
Gd	-2.696251	5.392503	-10.785005
Gd	0.000000	5.392503	-8.088754
O	-6.489080	9.611980	-6.489080
O	-4.295925	9.611980	-4.295925
O	-6.883323	12.524922	-6.883323
O	-3.901682	12.524922	-3.901682
O	-4.295925	11.958031	-6.489080
O	-7.132419	9.294185	-9.294185
O	-1.490821	9.294185	-3.652586
O	-3.901682	9.045089	-6.883323
O	-6.489080	6.489080	-9.611980
O	-1.173026	6.489080	-4.295925
O	-3.901682	6.883323	-9.045089
O	-1.739917	6.883323	-6.883323
O	-4.295925	4.295925	-9.611980
O	-1.173026	4.295925	-6.489080
O	-4.219477	9.688428	-9.688428
O	-1.096578	9.688428	-6.565529
O	-6.883323	6.883323	-12.524922
O	1.739917	6.883323	-3.901682
O	-4.295925	6.489080	-11.958031
O	1.173026	6.489080	-6.489080
O	-1.490821	3.652586	-9.294185
O	-3.901682	3.901682	-12.524922
O	1.739917	3.901682	-6.883323
O	-1.096578	6.565529	-9.688428
Sb	-2.792285	7.992721	-2.792285
Sb	-7.992721	7.992721	-7.992721
Sb	-5.392503	5.392503	-8.375263
Sb	-2.409742	5.392503	-5.392503
Sb	-2.792285	2.792285	-7.992721
Sb	-2.600218	8.184787	-8.184787
Sb	-5.392503	5.392503	-13.194748
Sb	2.409742	5.392503	-5.392503
Sb	-5.392503	8.375263	-5.392503
Sb	-5.392503	13.194748	-5.392503
Gd	0.000000	5.392503	-13.481257
Gd	2.696251	5.392503	-10.785005
Gd	0.000000	2.696251	-16.177508
Gd	5.392503	2.696251	-10.785005
Gd	2.696251	0.000000	-16.177508
Gd	5.392503	0.000000	-13.481257
O	-1.096578	4.219477	-11.881583
O	1.096578	4.219477	-9.688428
O	-1.490821	7.132419	-12.275826
O	1.490821	7.132419	-9.294185
O	1.096578	6.565529	-11.881583
O	-1.739917	3.901682	-14.686688
O	3.901682	3.901682	-9.045089
O	1.490821	3.652586	-12.275826
O	-1.096578	1.096578	-15.004482
O	4.219477	1.096578	-9.688428
O	1.490821	1.490821	-14.437591
O	3.652586	1.490821	-12.275826
O	1.096578	-1.096578	-15.004482
O	4.219477	-1.096578	-11.881583
O	1.173026	4.295925	-15.080930
O	4.295925	4.295925	-11.958031
O	-1.490821	1.490821	-17.917425
O	7.132419	1.490821	-9.294185
O	1.096578	1.096578	-17.350534
O	6.565529	1.096578	-11.881583
O	3.901682	-1.739917	-14.686688
O	1.490821	-1.490821	-17.917425
O	7.132419	-1.490821	-12.275826
O	4.295925	1.173026	-15.080930
Sb	2.600218	2.600218	-8.184787
Sb	-2.600218	2.600218	-13.385224
Sb	0.000000	0.000000	-13.767766
Sb	2.982760	0.000000	-10.785005
Sb	2.600218	-2.600218	-13.385224
Sb	2.792285	2.792285	-13.577290
Sb	0.000000	0.000000	-18.587250
Sb	7.802245	0.000000	-10.785005
Sb	0.000000	2.982760	-10.785005
Sb	0.000000	7.802245	-10.785005
Gd	0.000000	16.177508	-2.696251
Gd	2.696251	16.177508	0.000000
Gd	0.000000	13.481257	-5.392503
Gd	5.392503	13.481257	0.000000
Gd	2.696251	10.785005	-5.392503
Gd	5.392503	10.785005	-2.696251
O	-1.096578	15.004482	-1.096578
O	1.096578	15.004482	1.096578
O	-1.490821	17.917425	-1.490821
O	1.490821	17.917425	1.490821
O	1.096578	17.350534	-1.096578
O	-1.739917	14.686688	-3.901682
O	3.901682	14.686688	1.739917
O	1.490821	14.437591	-1.490821
O	-1.096578	11.881583	-4.219477
O	4.219477	11.881583	1.096578
O	1.490821	12.275826	-3.652586
O	3.652586	12.275826	-1.490821
O	1.096578	9.688428	-4.219477
O	4.219477	9.688428	-1.096578
O	1.173026	15.080930	-4.295925
O	4.295925	15.080930	-1.173026
O	-1.490821	12.275826	-7.132419
O	7.132419	12.275826	1.490821
O	1.096578	11.881583	-6.565529
O	6.565529	11.881583	-1.096578
O	3.901682	9.045089	-3.901682
O	1.490821	9.294185	-7.132419
O	7.132419	9.294185	-1.490821
O	4.295925	11.958031	-4.295925
Sb	2.600218	13.385224	2.600218
Sb	-2.600218	13.385224	-2.600218
Sb	0.000000	10.785005	-2.982760
Sb	2.982760	10.785005	0.000000
Sb	2.600218	8.184787	-2.600218
Sb	2.792285	13.577290	-2.792285
Sb	0.000000	10.785005	-7.802245
Sb	7.802245	10.785005	0.000000
Sb	0.000000	13.767766	0.000000
Sb	0.000000	18.587250	0.000000
Gd	5.392503	10.785005	-8.088754
Gd	8.088754	10.785005	-5.392503
Gd	5.392503	8.088754	-10.785005
Gd	10.785005	8.088754	-5.392503
Gd	8.088754	5.392503	-10.785005
Gd	10.785005	5.392503	-8.088754
O	4.295925	9.611980	-6.489080
O	6.489080	9.611980	-4.295925
O	3.901682	12.524922	-6.883323
O	6.883323	12.524922	-3.901682
O	6.489080	11.958031	-6.489080
O	3.652586	9.294185	-9.294185
O	9.294185	9.294185	-3.652586
O	6.883323	9.045089	-6.883323
O	4.295925	6.489080	-9.611980
O	9.611980	6.489080	-4.295925
O	6.883323	6.883323	-9.045089
O	9.045089	6.883323	-6.883323
O	6.489080	4.295925	-9.611980
O	9.611980	4.295925	-6.489080
O	6.565529	9.688428	-9.688428
O	9.688428	9.688428	-6.565529
O	3.901682	6.883323	-12.524922
O	12.524922	6.883323	-3.901682
O	6.489080	6.489080	-11.958031
O	11.958031	6.489080	-6.489080
O	9.294185	3.652586	-9.294185
O	6.883323	3.901682	-12.524922
O	12.524922	3.901682	-6.883323
O	9.688428	6.565529	-9.688428
Sb	7.992721	7.992721	-2.792285
Sb	2.792285	7.992721	-7.992721
Sb	5.392503	5.392503	-8.375263
Sb	8.375263	5.392503	-5.392503
Sb	7.992721	2.792285	-7.992721
Sb	8.184787	8.184787	-8.184787
Sb	5.392503	5.392503	-13.194748
Sb	13.194748	5.392503	-5.392503
Sb	5.392503	8.375263	-5.392503
Sb	5.392503	13.194748	-5.392503
