40

Ba	0.000000	0.000000	0.000000
O	1.982440	0.000000	1.982440
O	0.000000	1.982440	1.982440
O	1.982440	1.982440	0.000000
V	1.982440	1.982440	1.982440
Ba	0.000000	0.000000	3.964876
O	1.982440	0.000000	5.947316
O	0.000000	1.982440	5.947316
O	1.982440	1.982440	3.964876
V	1.982440	1.982440	5.947316
Ba	0.000000	3.964876	0.000000
O	1.982440	3.964876	1.982440
O	0.000000	5.947316	1.982440
O	1.982440	5.947316	0.000000
V	1.982440	5.947316	1.982440
Ba	0.000000	3.964876	3.964876
O	1.982440	3.964876	5.947316
O	0.000000	5.947316	5.947316
O	1.982440	5.947316	3.964876
V	1.982440	5.947316	5.947316
Ba	3.964876	0.000000	0.000000
O	5.947316	0.000000	1.982440
O	3.964876	1.982440	1.982440
O	5.947316	1.982440	0.000000
V	5.947316	1.982440	1.982440
Ba	3.964876	0.000000	3.964876
O	5.947316	0.000000	5.947316
O	3.964876	1.982440	5.947316
O	5.947316	1.982440	3.964876
V	5.947316	1.982440	5.947316
Ba	3.964876	3.964876	0.000000
O	5.947316	3.964876	1.982440
O	3.964876	5.947316	1.982440
O	5.947316	5.947316	0.000000
V	5.947316	5.947316	1.982440
Ba	3.964876	3.964876	3.964876
O	5.947316	3.964876	5.947316
O	3.964876	5.947316	5.947316
O	5.947316	5.947316	3.964876
V	5.947316	5.947316	5.947316
