112

Au	0.000000	0.000000	0.000000
Au	2.396606	-2.397399	-2.397399
O	-1.066208	1.065846	-3.728951
O	3.727014	-1.065846	-1.065846
O	1.066208	-1.065846	-3.728951
O	1.330398	1.331552	-1.331552
O	5.859420	1.065846	-1.065846
O	1.330398	3.463245	-3.463245
O	3.462814	1.331552	-3.463245
O	3.462814	3.463245	-1.331552
Y	-1.198303	-1.198694	-3.596093
Y	3.594909	1.198694	-1.198694
Y	1.198303	1.198694	-3.596093
Y	5.991515	-1.198694	-1.198694
Au	4.793215	4.794792	0.000000
Au	7.189821	2.397394	-2.397399
O	3.727007	5.860638	-3.728951
O	8.520229	3.728946	-1.065846
O	5.859423	3.728946	-3.728951
O	6.123613	6.126345	-1.331552
O	10.652634	5.860638	-1.065846
O	6.123613	8.258037	-3.463245
O	8.256029	6.126345	-3.463245
O	8.256029	8.258037	-1.331552
Y	3.594912	3.596098	-3.596093
Y	8.388124	5.993487	-1.198694
Y	5.991518	5.993487	-3.596093
Y	10.784729	3.596098	-1.198694
Au	-4.793215	0.000000	-4.794792
Au	-2.396609	-2.397399	-7.192191
O	-5.859423	1.065846	-8.523743
O	-1.066201	-1.065846	-5.860638
O	-3.727007	-1.065846	-8.523743
O	-3.462817	1.331552	-6.126345
O	1.066205	1.065846	-5.860638
O	-3.462817	3.463245	-8.258037
O	-1.330401	1.331552	-8.258037
O	-1.330401	3.463245	-6.126345
Y	-5.991518	-1.198694	-8.390885
Y	-1.198306	1.198694	-5.993487
Y	-3.594912	1.198694	-8.390885
Y	1.198300	-1.198694	-5.993487
Au	0.000000	4.794792	-4.794792
Au	2.396606	2.397394	-7.192191
O	-1.066208	5.860638	-8.523743
O	3.727014	3.728946	-5.860638
O	1.066208	3.728946	-8.523743
O	1.330398	6.126345	-6.126345
O	5.859420	5.860638	-5.860638
O	1.330398	8.258037	-8.258037
O	3.462814	6.126345	-8.258037
O	3.462814	8.258037	-6.126345
Y	-1.198303	3.596098	-8.390885
Y	3.594909	5.993487	-5.993487
Y	1.198303	5.993487	-8.390885
Y	5.991515	3.596098	-5.993487
Au	4.793215	-4.794792	0.000000
Au	7.189821	-7.192191	-2.397399
O	3.727007	-3.728946	-3.728951
O	8.520229	-5.860638	-1.065846
O	5.859423	-5.860638	-3.728951
O	6.123613	-3.463240	-1.331552
O	10.652634	-3.728946	-1.065846
O	6.123613	-1.331547	-3.463245
O	8.256029	-3.463240	-3.463245
O	8.256029	-1.331547	-1.331552
Y	3.594912	-5.993487	-3.596093
Y	8.388124	-3.596098	-1.198694
Y	5.991518	-3.596098	-3.596093
Y	10.784729	-5.993487	-1.198694
Au	9.586430	0.000000	0.000000
Au	11.983036	-2.397399	-2.397399
O	8.520222	1.065846	-3.728951
O	13.313444	-1.065846	-1.065846
O	10.652638	-1.065846	-3.728951
O	10.916828	1.331552	-1.331552
O	15.445849	1.065846	-1.065846
O	10.916828	3.463245	-3.463245
O	13.049243	1.331552	-3.463245
O	13.049243	3.463245	-1.331552
Y	8.388127	-1.198694	-3.596093
Y	13.181339	1.198694	-1.198694
Y	10.784733	1.198694	-3.596093
Y	15.577944	-1.198694	-1.198694
Au	0.000000	-4.794792	-4.794792
Au	2.396606	-7.192191	-7.192191
O	-1.066208	-3.728946	-8.523743
O	3.727014	-5.860638	-5.860638
O	1.066208	-5.860638	-8.523743
O	1.330398	-3.463240	-6.126345
O	5.859420	-3.728946	-5.860638
O	1.330398	-1.331547	-8.258037
O	3.462814	-3.463240	-8.258037
O	3.462814	-1.331547	-6.126345
Y	-1.198303	-5.993487	-8.390885
Y	3.594909	-3.596098	-5.993487
Y	1.198303	-3.596098	-8.390885
Y	5.991515	-5.993487	-5.993487
Au	4.793215	0.000000	-4.794792
Au	7.189821	-2.397399	-7.192191
O	3.727007	1.065846	-8.523743
O	8.520229	-1.065846	-5.860638
O	5.859423	-1.065846	-8.523743
O	6.123613	1.331552	-6.126345
O	10.652634	1.065846	-5.860638
O	6.123613	3.463245	-8.258037
O	8.256029	1.331552	-8.258037
O	8.256029	3.463245	-6.126345
Y	3.594912	-1.198694	-8.390885
Y	8.388124	1.198694	-5.993487
Y	5.991518	1.198694	-8.390885
Y	10.784729	-1.198694	-5.993487
