40

Np	0.000000	0.000000	0.000000
O	2.206880	2.206880	0.000000
O	0.000000	2.206880	2.206880
O	2.206880	0.000000	2.206880
Pm_3	2.206880	2.206880	2.206880
Np	0.000000	0.000000	4.413761
O	2.206880	2.206880	4.413761
O	0.000000	2.206880	6.620641
O	2.206880	0.000000	6.620641
Pm_3	2.206880	2.206880	6.620641
Np	0.000000	4.413761	0.000000
O	2.206880	6.620641	0.000000
O	0.000000	6.620641	2.206880
O	2.206880	4.413761	2.206880
Pm_3	2.206880	6.620641	2.206880
Np	0.000000	4.413761	4.413761
O	2.206880	6.620641	4.413761
O	0.000000	6.620641	6.620641
O	2.206880	4.413761	6.620641
Pm_3	2.206880	6.620641	6.620641
Np	4.413761	0.000000	0.000000
O	6.620641	2.206880	0.000000
O	4.413761	2.206880	2.206880
O	6.620641	0.000000	2.206880
Pm_3	6.620641	2.206880	2.206880
Np	4.413761	0.000000	4.413761
O	6.620641	2.206880	4.413761
O	4.413761	2.206880	6.620641
O	6.620641	0.000000	6.620641
Pm_3	6.620641	2.206880	6.620641
Np	4.413761	4.413761	0.000000
O	6.620641	6.620641	0.000000
O	4.413761	6.620641	2.206880
O	6.620641	4.413761	2.206880
Pm_3	6.620641	6.620641	2.206880
Np	4.413761	4.413761	4.413761
O	6.620641	6.620641	4.413761
O	4.413761	6.620641	6.620641
O	6.620641	4.413761	6.620641
Pm_3	6.620641	6.620641	6.620641
