40

Mn	0.000000	0.000000	0.000000
O	0.000000	1.985278	1.985278
O	1.985278	0.000000	1.985278
O	1.985278	1.985278	0.000000
W	1.985278	1.985278	1.985278
Mn	0.000000	0.000000	3.970556
O	0.000000	1.985278	5.955834
O	1.985278	0.000000	5.955834
O	1.985278	1.985278	3.970556
W	1.985278	1.985278	5.955834
Mn	0.000000	3.970556	0.000000
O	0.000000	5.955834	1.985278
O	1.985278	3.970556	1.985278
O	1.985278	5.955834	0.000000
W	1.985278	5.955834	1.985278
Mn	0.000000	3.970556	3.970556
O	0.000000	5.955834	5.955834
O	1.985278	3.970556	5.955834
O	1.985278	5.955834	3.970556
W	1.985278	5.955834	5.955834
Mn	3.970556	0.000000	0.000000
O	3.970556	1.985278	1.985278
O	5.955834	0.000000	1.985278
O	5.955834	1.985278	0.000000
W	5.955834	1.985278	1.985278
Mn	3.970556	0.000000	3.970556
O	3.970556	1.985278	5.955834
O	5.955834	0.000000	5.955834
O	5.955834	1.985278	3.970556
W	5.955834	1.985278	5.955834
Mn	3.970556	3.970556	0.000000
O	3.970556	5.955834	1.985278
O	5.955834	3.970556	1.985278
O	5.955834	5.955834	0.000000
W	5.955834	5.955834	1.985278
Mn	3.970556	3.970556	3.970556
O	3.970556	5.955834	5.955834
O	5.955834	3.970556	5.955834
O	5.955834	5.955834	3.970556
W	5.955834	5.955834	5.955834
