40

O	2.040630	2.040630	0.000000
O	0.000000	2.040630	2.040630
O	2.040630	0.000000	2.040630
Sb	0.000000	0.000000	0.000000
Sn	2.040630	2.040630	2.040630
O	2.040630	2.040630	4.081269
O	0.000000	2.040630	6.121899
O	2.040630	0.000000	6.121899
Sb	0.000000	0.000000	4.081269
Sn	2.040630	2.040630	6.121899
O	2.040630	6.121899	0.000000
O	0.000000	6.121899	2.040630
O	2.040630	4.081269	2.040630
Sb	0.000000	4.081269	0.000000
Sn	2.040630	6.121899	2.040630
O	2.040630	6.121899	4.081269
O	0.000000	6.121899	6.121899
O	2.040630	4.081269	6.121899
Sb	0.000000	4.081269	4.081269
Sn	2.040630	6.121899	6.121899
O	6.121899	2.040630	0.000000
O	4.081269	2.040630	2.040630
O	6.121899	0.000000	2.040630
Sb	4.081269	0.000000	0.000000
Sn	6.121899	2.040630	2.040630
O	6.121899	2.040630	4.081269
O	4.081269	2.040630	6.121899
O	6.121899	0.000000	6.121899
Sb	4.081269	0.000000	4.081269
Sn	6.121899	2.040630	6.121899
O	6.121899	6.121899	0.000000
O	4.081269	6.121899	2.040630
O	6.121899	4.081269	2.040630
Sb	4.081269	4.081269	0.000000
Sn	6.121899	6.121899	2.040630
O	6.121899	6.121899	4.081269
O	4.081269	6.121899	6.121899
O	6.121899	4.081269	6.121899
Sb	4.081269	4.081269	4.081269
Sn	6.121899	6.121899	6.121899
