112

Be	0.000000	0.000000	0.000000
Be	2.201826	-2.201903	-2.201903
Er	-1.100908	-1.100956	-3.302859
Er	1.100908	1.100956	-3.302859
Er	5.504559	-1.100956	-1.100956
Er	3.302734	1.100956	-1.100956
O	1.056337	1.056450	-1.056450
O	3.258152	-1.145453	-1.145453
O	-1.145489	1.145453	-3.258363
O	1.145489	-1.145453	-3.258363
O	1.056337	3.347356	-3.347356
O	3.347315	3.347356	-1.056450
O	3.347315	1.056450	-3.347356
O	5.549131	1.145453	-1.145453
Be	4.403645	4.403810	0.000000
Be	6.605471	2.201907	-2.201903
Er	3.302737	3.302854	-3.302859
Er	5.504553	5.504767	-3.302859
Er	9.908204	3.302854	-1.100956
Er	7.706379	5.504767	-1.100956
O	5.459982	5.460260	-1.056450
O	7.661798	3.258357	-1.145453
O	3.258156	5.549263	-3.258363
O	5.549134	3.258357	-3.258363
O	5.459982	7.751166	-3.347356
O	7.750960	7.751166	-1.056450
O	7.750960	5.460260	-3.347356
O	9.952776	5.549263	-1.145453
Be	-4.403645	0.000000	-4.403810
Be	-2.201820	-2.201903	-6.605713
Er	-5.504553	-1.100956	-7.706669
Er	-3.302737	1.100956	-7.706669
Er	1.100914	-1.100956	-5.504767
Er	-1.100912	1.100956	-5.504767
O	-3.347309	1.056450	-5.460260
O	-1.145493	-1.145453	-5.549263
O	-5.549134	1.145453	-7.662173
O	-3.258156	-1.145453	-7.662173
O	-3.347309	3.347356	-7.751166
O	-1.056330	3.347356	-5.460260
O	-1.056330	1.056450	-7.751166
O	1.145485	1.145453	-5.549263
Be	0.000000	4.403810	-4.403810
Be	2.201826	2.201907	-6.605713
Er	-1.100908	3.302854	-7.706669
Er	1.100908	5.504767	-7.706669
Er	5.504559	3.302854	-5.504767
Er	3.302734	5.504767	-5.504767
O	1.056337	5.460260	-5.460260
O	3.258152	3.258357	-5.549263
O	-1.145489	5.549263	-7.662173
O	1.145489	3.258357	-7.662173
O	1.056337	7.751166	-7.751166
O	3.347315	7.751166	-5.460260
O	3.347315	5.460260	-7.751166
O	5.549131	5.549263	-5.549263
Be	4.403645	-4.403810	0.000000
Be	6.605471	-6.605713	-2.201903
Er	3.302737	-5.504767	-3.302859
Er	5.504553	-3.302854	-3.302859
Er	9.908204	-5.504767	-1.100956
Er	7.706379	-3.302854	-1.100956
O	5.459982	-3.347360	-1.056450
O	7.661798	-5.549263	-1.145453
O	3.258156	-3.258357	-3.258363
O	5.549134	-5.549263	-3.258363
O	5.459982	-1.056454	-3.347356
O	7.750960	-1.056454	-1.056450
O	7.750960	-3.347360	-3.347356
O	9.952776	-3.258357	-1.145453
Be	8.807290	0.000000	0.000000
Be	11.009116	-2.201903	-2.201903
Er	7.706382	-1.100956	-3.302859
Er	9.908198	1.100956	-3.302859
Er	14.311850	-1.100956	-1.100956
Er	12.110024	1.100956	-1.100956
O	9.863627	1.056450	-1.056450
O	12.065443	-1.145453	-1.145453
O	7.661801	1.145453	-3.258363
O	9.952779	-1.145453	-3.258363
O	9.863627	3.347356	-3.347356
O	12.154605	3.347356	-1.056450
O	12.154605	1.056450	-3.347356
O	14.356421	1.145453	-1.145453
Be	0.000000	-4.403810	-4.403810
Be	2.201826	-6.605713	-6.605713
Er	-1.100908	-5.504767	-7.706669
Er	1.100908	-3.302854	-7.706669
Er	5.504559	-5.504767	-5.504767
Er	3.302734	-3.302854	-5.504767
O	1.056337	-3.347360	-5.460260
O	3.258152	-5.549263	-5.549263
O	-1.145489	-3.258357	-7.662173
O	1.145489	-5.549263	-7.662173
O	1.056337	-1.056454	-7.751166
O	3.347315	-1.056454	-5.460260
O	3.347315	-3.347360	-7.751166
O	5.549131	-3.258357	-5.549263
Be	4.403645	0.000000	-4.403810
Be	6.605471	-2.201903	-6.605713
Er	3.302737	-1.100956	-7.706669
Er	5.504553	1.100956	-7.706669
Er	9.908204	-1.100956	-5.504767
Er	7.706379	1.100956	-5.504767
O	5.459982	1.056450	-5.460260
O	7.661798	-1.145453	-5.549263
O	3.258156	1.145453	-7.662173
O	5.549134	-1.145453	-7.662173
O	5.459982	3.347356	-7.751166
O	7.750960	3.347356	-5.460260
O	7.750960	1.056450	-7.751166
O	9.952776	1.145453	-5.549263
