112

Nd	0.000000	0.000000	0.000000
Nd	2.473069	-2.473387	-2.473387
O	3.784126	-1.161436	-1.161436
O	-1.162011	1.161436	-3.785338
O	1.162011	-1.161436	-3.785338
O	1.311057	1.311951	-1.311951
O	6.108149	1.161436	-1.161436
O	1.311057	3.634823	-3.634823
O	3.635080	3.634823	-1.311951
O	3.635080	1.311951	-3.634823
Tl	-1.236534	-1.236694	-3.710081
Tl	3.709603	1.236694	-1.236694
Tl	6.182671	-1.236694	-1.236694
Tl	1.236534	1.236694	-3.710081
Nd	4.946137	4.946774	0.000000
Nd	7.419206	2.473387	-2.473387
O	8.730263	3.785338	-1.161436
O	3.784126	6.108210	-3.785338
O	6.108149	3.785338	-3.785338
O	6.257194	6.258726	-1.311951
O	11.054286	6.108210	-1.161436
O	6.257194	8.581597	-3.634823
O	8.581217	8.581597	-1.311951
O	8.581217	6.258726	-3.634823
Tl	3.709603	3.710081	-3.710081
Tl	8.655740	6.183468	-1.236694
Tl	11.128809	3.710081	-1.236694
Tl	6.182671	6.183468	-3.710081
Nd	-4.946137	0.000000	-4.946774
Nd	-2.473069	-2.473387	-7.420162
O	-1.162011	-1.161436	-6.108210
O	-6.108149	1.161436	-8.732113
O	-3.784126	-1.161436	-8.732113
O	-3.635080	1.311951	-6.258726
O	1.162011	1.161436	-6.108210
O	-3.635080	3.634823	-8.581597
O	-1.311057	3.634823	-6.258726
O	-1.311057	1.311951	-8.581597
Tl	-6.182671	-1.236694	-8.656855
Tl	-1.236534	1.236694	-6.183468
Tl	1.236534	-1.236694	-6.183468
Tl	-3.709603	1.236694	-8.656855
Nd	0.000000	4.946774	-4.946774
Nd	2.473069	2.473387	-7.420162
O	3.784126	3.785338	-6.108210
O	-1.162011	6.108210	-8.732113
O	1.162011	3.785338	-8.732113
O	1.311057	6.258726	-6.258726
O	6.108149	6.108210	-6.108210
O	1.311057	8.581597	-8.581597
O	3.635080	8.581597	-6.258726
O	3.635080	6.258726	-8.581597
Tl	-1.236534	3.710081	-8.656855
Tl	3.709603	6.183468	-6.183468
Tl	6.182671	3.710081	-6.183468
Tl	1.236534	6.183468	-8.656855
Nd	4.946137	-4.946774	0.000000
Nd	7.419206	-7.420162	-2.473387
O	8.730263	-6.108210	-1.161436
O	3.784126	-3.785338	-3.785338
O	6.108149	-6.108210	-3.785338
O	6.257194	-3.634823	-1.311951
O	11.054286	-3.785338	-1.161436
O	6.257194	-1.311951	-3.634823
O	8.581217	-1.311951	-1.311951
O	8.581217	-3.634823	-3.634823
Tl	3.709603	-6.183468	-3.710081
Tl	8.655740	-3.710081	-1.236694
Tl	11.128809	-6.183468	-1.236694
Tl	6.182671	-3.710081	-3.710081
Nd	9.892274	0.000000	0.000000
Nd	12.365343	-2.473387	-2.473387
O	13.676400	-1.161436	-1.161436
O	8.730263	1.161436	-3.785338
O	11.054286	-1.161436	-3.785338
O	11.203332	1.311951	-1.311951
O	16.000423	1.161436	-1.161436
O	11.203332	3.634823	-3.634823
O	13.527354	3.634823	-1.311951
O	13.527354	1.311951	-3.634823
Tl	8.655740	-1.236694	-3.710081
Tl	13.601877	1.236694	-1.236694
Tl	16.074946	-1.236694	-1.236694
Tl	11.128809	1.236694	-3.710081
Nd	0.000000	-4.946774	-4.946774
Nd	2.473069	-7.420162	-7.420162
O	3.784126	-6.108210	-6.108210
O	-1.162011	-3.785338	-8.732113
O	1.162011	-6.108210	-8.732113
O	1.311057	-3.634823	-6.258726
O	6.108149	-3.785338	-6.108210
O	1.311057	-1.311951	-8.581597
O	3.635080	-1.311951	-6.258726
O	3.635080	-3.634823	-8.581597
Tl	-1.236534	-6.183468	-8.656855
Tl	3.709603	-3.710081	-6.183468
Tl	6.182671	-6.183468	-6.183468
Tl	1.236534	-3.710081	-8.656855
Nd	4.946137	0.000000	-4.946774
Nd	7.419206	-2.473387	-7.420162
O	8.730263	-1.161436	-6.108210
O	3.784126	1.161436	-8.732113
O	6.108149	-1.161436	-8.732113
O	6.257194	1.311951	-6.258726
O	11.054286	1.161436	-6.108210
O	6.257194	3.634823	-8.581597
O	8.581217	3.634823	-6.258726
O	8.581217	1.311951	-8.581597
Tl	3.709603	-1.236694	-8.656855
Tl	8.655740	1.236694	-6.183468
Tl	11.128809	-1.236694	-6.183468
Tl	6.182671	1.236694	-8.656855
