40

Hf	2.047230	2.047230	2.047230
O	2.047230	2.047230	0.000000
O	0.000000	2.047230	2.047230
O	2.047230	0.000000	2.047230
Pa	0.000000	0.000000	0.000000
Hf	2.047230	2.047230	6.141689
O	2.047230	2.047230	4.094459
O	0.000000	2.047230	6.141689
O	2.047230	0.000000	6.141689
Pa	0.000000	0.000000	4.094459
Hf	2.047230	6.141689	2.047230
O	2.047230	6.141689	0.000000
O	0.000000	6.141689	2.047230
O	2.047230	4.094459	2.047230
Pa	0.000000	4.094459	0.000000
Hf	2.047230	6.141689	6.141689
O	2.047230	6.141689	4.094459
O	0.000000	6.141689	6.141689
O	2.047230	4.094459	6.141689
Pa	0.000000	4.094459	4.094459
Hf	6.141689	2.047230	2.047230
O	6.141689	2.047230	0.000000
O	4.094459	2.047230	2.047230
O	6.141689	0.000000	2.047230
Pa	4.094459	0.000000	0.000000
Hf	6.141689	2.047230	6.141689
O	6.141689	2.047230	4.094459
O	4.094459	2.047230	6.141689
O	6.141689	0.000000	6.141689
Pa	4.094459	0.000000	4.094459
Hf	6.141689	6.141689	2.047230
O	6.141689	6.141689	0.000000
O	4.094459	6.141689	2.047230
O	6.141689	4.094459	2.047230
Pa	4.094459	4.094459	0.000000
Hf	6.141689	6.141689	6.141689
O	6.141689	6.141689	4.094459
O	4.094459	6.141689	6.141689
O	6.141689	4.094459	6.141689
Pa	4.094459	4.094459	4.094459
