112

Dy	0.000000	0.000000	0.000000
Dy	2.474615	-2.471930	-2.471930
Np	-1.237312	-1.235965	-3.707894
Np	1.237312	1.235965	-3.707894
Np	3.711927	1.235965	-1.235965
Np	6.186542	-1.235965	-1.235965
O	1.232194	-1.223082	-3.720777
O	-1.232194	1.223082	-3.720777
O	3.717035	-1.223082	-1.223082
O	1.242420	1.248847	-1.248848
O	6.181424	1.223082	-1.223082
O	3.706809	1.248848	-3.695022
O	3.706809	3.695022	-1.248848
O	1.242420	3.695022	-3.695022
Dy	4.949230	4.943863	0.000000
Dy	7.423844	2.471934	-2.471930
Np	3.711917	3.707899	-3.707894
Np	6.186542	6.179828	-3.707894
Np	8.661157	6.179828	-1.235965
Np	11.135772	3.707899	-1.235965
O	6.181424	3.720781	-3.720777
O	3.717035	6.166945	-3.720777
O	8.666265	3.720781	-1.223082
O	6.191650	6.192711	-1.248848
O	11.130653	6.166945	-1.223082
O	8.656039	6.192711	-3.695022
O	8.656039	8.638885	-1.248848
O	6.191650	8.638885	-3.695022
Dy	-4.949230	0.000000	-4.943863
Dy	-2.474615	-2.471930	-7.415793
Np	-6.186542	-1.235965	-8.651758
Np	-3.711917	1.235965	-8.651758
Np	-1.237303	1.235965	-6.179828
Np	1.237312	-1.235965	-6.179828
O	-3.717035	-1.223082	-8.664640
O	-6.181424	1.223082	-8.664640
O	-1.232195	-1.223082	-6.166945
O	-3.706810	1.248847	-6.192711
O	1.232194	1.223082	-6.166945
O	-1.242421	1.248848	-8.638885
O	-1.242421	3.695022	-6.192711
O	-3.706809	3.695022	-8.638885
Dy	0.000000	4.943863	-4.943863
Dy	2.474615	2.471934	-7.415793
Np	-1.237312	3.707899	-8.651758
Np	1.237312	6.179828	-8.651758
Np	3.711927	6.179828	-6.179828
Np	6.186542	3.707899	-6.179828
O	1.232194	3.720781	-8.664640
O	-1.232194	6.166945	-8.664640
O	3.717035	3.720781	-6.166945
O	1.242420	6.192711	-6.192711
O	6.181424	6.166945	-6.166945
O	3.706809	6.192711	-8.638885
O	3.706809	8.638885	-6.192711
O	1.242420	8.638885	-8.638885
Dy	4.949230	-4.943863	0.000000
Dy	7.423844	-7.415793	-2.471930
Np	3.711917	-6.179828	-3.707894
Np	6.186542	-3.707899	-3.707894
Np	8.661157	-3.707899	-1.235965
Np	11.135772	-6.179828	-1.235965
O	6.181424	-6.166945	-3.720777
O	3.717035	-3.720781	-3.720777
O	8.666265	-6.166945	-1.223082
O	6.191650	-3.695016	-1.248848
O	11.130653	-3.720781	-1.223082
O	8.656039	-3.695016	-3.695022
O	8.656039	-1.248842	-1.248848
O	6.191650	-1.248842	-3.695022
Dy	9.898460	0.000000	0.000000
Dy	12.373074	-2.471930	-2.471930
Np	8.661147	-1.235965	-3.707894
Np	11.135772	1.235965	-3.707894
Np	13.610387	1.235965	-1.235965
Np	16.085001	-1.235965	-1.235965
O	11.130654	-1.223082	-3.720777
O	8.666265	1.223082	-3.720777
O	13.615494	-1.223082	-1.223082
O	11.140880	1.248847	-1.248848
O	16.079883	1.223082	-1.223082
O	13.605269	1.248848	-3.695022
O	13.605269	3.695022	-1.248848
O	11.140880	3.695022	-3.695022
Dy	0.000000	-4.943863	-4.943863
Dy	2.474615	-7.415793	-7.415793
Np	-1.237312	-6.179828	-8.651758
Np	1.237312	-3.707899	-8.651758
Np	3.711927	-3.707899	-6.179828
Np	6.186542	-6.179828	-6.179828
O	1.232194	-6.166945	-8.664640
O	-1.232194	-3.720781	-8.664640
O	3.717035	-6.166945	-6.166945
O	1.242420	-3.695016	-6.192711
O	6.181424	-3.720781	-6.166945
O	3.706809	-3.695016	-8.638885
O	3.706809	-1.248842	-6.192711
O	1.242420	-1.248842	-8.638885
Dy	4.949230	0.000000	-4.943863
Dy	7.423844	-2.471930	-7.415793
Np	3.711917	-1.235965	-8.651758
Np	6.186542	1.235965	-8.651758
Np	8.661157	1.235965	-6.179828
Np	11.135772	-1.235965	-6.179828
O	6.181424	-1.223082	-8.664640
O	3.717035	1.223082	-8.664640
O	8.666265	-1.223082	-6.166945
O	6.191650	1.248847	-6.192711
O	11.130653	1.223082	-6.166945
O	8.656039	1.248848	-8.638885
O	8.656039	3.695022	-6.192711
O	6.191650	3.695022	-8.638885
