40

O	0.000000	2.398999	2.398999
O	2.398999	0.000000	2.398999
O	2.398999	2.398999	0.000000
Sr	2.398999	2.398999	2.398999
Tl	0.000000	0.000000	0.000000
O	0.000000	2.398999	7.196998
O	2.398999	0.000000	7.196998
O	2.398999	2.398999	4.797999
Sr	2.398999	2.398999	7.196998
Tl	0.000000	0.000000	4.797999
O	0.000000	7.196998	2.398999
O	2.398999	4.797999	2.398999
O	2.398999	7.196998	0.000000
Sr	2.398999	7.196998	2.398999
Tl	0.000000	4.797999	0.000000
O	0.000000	7.196998	7.196998
O	2.398999	4.797999	7.196998
O	2.398999	7.196998	4.797999
Sr	2.398999	7.196998	7.196998
Tl	0.000000	4.797999	4.797999
O	4.797999	2.398999	2.398999
O	7.196998	0.000000	2.398999
O	7.196998	2.398999	0.000000
Sr	7.196998	2.398999	2.398999
Tl	4.797999	0.000000	0.000000
O	4.797999	2.398999	7.196998
O	7.196998	0.000000	7.196998
O	7.196998	2.398999	4.797999
Sr	7.196998	2.398999	7.196998
Tl	4.797999	0.000000	4.797999
O	4.797999	7.196998	2.398999
O	7.196998	4.797999	2.398999
O	7.196998	7.196998	0.000000
Sr	7.196998	7.196998	2.398999
Tl	4.797999	4.797999	0.000000
O	4.797999	7.196998	7.196998
O	7.196998	4.797999	7.196998
O	7.196998	7.196998	4.797999
Sr	7.196998	7.196998	7.196998
Tl	4.797999	4.797999	4.797999
