40

Ca	0.000000	0.000000	0.000000
K	2.133837	2.133837	2.133837
O	2.133837	2.133837	0.000000
O	2.133837	0.000000	2.133837
O	0.000000	2.133837	2.133837
Ca	0.000000	0.000000	4.267681
K	2.133837	2.133837	6.401518
O	2.133837	2.133837	4.267681
O	2.133837	0.000000	6.401518
O	0.000000	2.133837	6.401518
Ca	0.000000	4.267681	0.000000
K	2.133837	6.401518	2.133837
O	2.133837	6.401518	0.000000
O	2.133837	4.267681	2.133837
O	0.000000	6.401518	2.133837
Ca	0.000000	4.267681	4.267681
K	2.133837	6.401518	6.401518
O	2.133837	6.401518	4.267681
O	2.133837	4.267681	6.401518
O	0.000000	6.401518	6.401518
Ca	4.267681	0.000000	0.000000
K	6.401518	2.133837	2.133837
O	6.401518	2.133837	0.000000
O	6.401518	0.000000	2.133837
O	4.267681	2.133837	2.133837
Ca	4.267681	0.000000	4.267681
K	6.401518	2.133837	6.401518
O	6.401518	2.133837	4.267681
O	6.401518	0.000000	6.401518
O	4.267681	2.133837	6.401518
Ca	4.267681	4.267681	0.000000
K	6.401518	6.401518	2.133837
O	6.401518	6.401518	0.000000
O	6.401518	4.267681	2.133837
O	4.267681	6.401518	2.133837
Ca	4.267681	4.267681	4.267681
K	6.401518	6.401518	6.401518
O	6.401518	6.401518	4.267681
O	6.401518	4.267681	6.401518
O	4.267681	6.401518	6.401518
