40

Ca	0.000000	0.000000	0.000000
Ho	2.153362	2.153362	2.153362
O	2.153362	2.153362	0.000000
O	2.153362	0.000000	2.153362
O	0.000000	2.153362	2.153362
Ca	0.000000	0.000000	4.306724
Ho	2.153362	2.153362	6.460085
O	2.153362	2.153362	4.306724
O	2.153362	0.000000	6.460085
O	0.000000	2.153362	6.460085
Ca	0.000000	4.306724	0.000000
Ho	2.153362	6.460085	2.153362
O	2.153362	6.460085	0.000000
O	2.153362	4.306724	2.153362
O	0.000000	6.460085	2.153362
Ca	0.000000	4.306724	4.306724
Ho	2.153362	6.460085	6.460085
O	2.153362	6.460085	4.306724
O	2.153362	4.306724	6.460085
O	0.000000	6.460085	6.460085
Ca	4.306724	0.000000	0.000000
Ho	6.460085	2.153362	2.153362
O	6.460085	2.153362	0.000000
O	6.460085	0.000000	2.153362
O	4.306724	2.153362	2.153362
Ca	4.306724	0.000000	4.306724
Ho	6.460085	2.153362	6.460085
O	6.460085	2.153362	4.306724
O	6.460085	0.000000	6.460085
O	4.306724	2.153362	6.460085
Ca	4.306724	4.306724	0.000000
Ho	6.460085	6.460085	2.153362
O	6.460085	6.460085	0.000000
O	6.460085	4.306724	2.153362
O	4.306724	6.460085	2.153362
Ca	4.306724	4.306724	4.306724
Ho	6.460085	6.460085	6.460085
O	6.460085	6.460085	4.306724
O	6.460085	4.306724	6.460085
O	4.306724	6.460085	6.460085
