40

Eu	2.164346	2.164346	2.164346
O	2.164346	2.164346	0.000000
O	2.164346	0.000000	2.164346
O	0.000000	2.164346	2.164346
Pr	0.000000	0.000000	0.000000
Eu	2.164346	2.164346	6.493038
O	2.164346	2.164346	4.328692
O	2.164346	0.000000	6.493038
O	0.000000	2.164346	6.493038
Pr	0.000000	0.000000	4.328692
Eu	2.164346	6.493038	2.164346
O	2.164346	6.493038	0.000000
O	2.164346	4.328692	2.164346
O	0.000000	6.493038	2.164346
Pr	0.000000	4.328692	0.000000
Eu	2.164346	6.493038	6.493038
O	2.164346	6.493038	4.328692
O	2.164346	4.328692	6.493038
O	0.000000	6.493038	6.493038
Pr	0.000000	4.328692	4.328692
Eu	6.493038	2.164346	2.164346
O	6.493038	2.164346	0.000000
O	6.493038	0.000000	2.164346
O	4.328692	2.164346	2.164346
Pr	4.328692	0.000000	0.000000
Eu	6.493038	2.164346	6.493038
O	6.493038	2.164346	4.328692
O	6.493038	0.000000	6.493038
O	4.328692	2.164346	6.493038
Pr	4.328692	0.000000	4.328692
Eu	6.493038	6.493038	2.164346
O	6.493038	6.493038	0.000000
O	6.493038	4.328692	2.164346
O	4.328692	6.493038	2.164346
Pr	4.328692	4.328692	0.000000
Eu	6.493038	6.493038	6.493038
O	6.493038	6.493038	4.328692
O	6.493038	4.328692	6.493038
O	4.328692	6.493038	6.493038
Pr	4.328692	4.328692	4.328692
