112

Cd	0.000000	0.000000	0.000000
Cd	2.246881	-2.247436	-2.247436
O	3.522858	-0.970617	-0.970617
O	-0.970903	0.970617	-3.524256
O	0.970903	-0.970617	-3.524256
O	1.275978	1.276819	-1.276819
O	5.464664	0.970617	-0.970617
O	1.275978	3.218053	-3.218053
O	3.217784	3.218053	-1.276819
O	3.217784	1.276819	-3.218053
Re	-1.123440	-1.123718	-3.371154
Re	3.370321	1.123718	-1.123718
Re	5.617202	-1.123718	-1.123718
Re	1.123440	1.123718	-3.371154
Cd	4.493761	4.494873	0.000000
Cd	6.740642	2.247436	-2.247436
O	8.016620	3.524256	-0.970617
O	3.522858	5.465490	-3.524256
O	5.464664	3.524256	-3.524256
O	5.769739	5.771692	-1.276819
O	9.958425	5.465490	-0.970617
O	5.769739	7.712926	-3.218053
O	7.711545	7.712926	-1.276819
O	7.711545	5.771692	-3.218053
Re	3.370321	3.371154	-3.371154
Re	7.864082	5.618591	-1.123718
Re	10.110963	3.371154	-1.123718
Re	5.617202	5.618591	-3.371154
Cd	-4.493761	0.000000	-4.494873
Cd	-2.246881	-2.247436	-6.742309
O	-0.970903	-0.970617	-5.465490
O	-5.464664	0.970617	-8.019128
O	-3.522858	-0.970617	-8.019128
O	-3.217784	1.276819	-5.771692
O	0.970903	0.970617	-5.465490
O	-3.217784	3.218053	-7.712926
O	-1.275978	3.218053	-5.771692
O	-1.275978	1.276819	-7.712926
Re	-5.617202	-1.123718	-7.866027
Re	-1.123440	1.123718	-5.618591
Re	1.123440	-1.123718	-5.618591
Re	-3.370321	1.123718	-7.866027
Cd	0.000000	4.494873	-4.494873
Cd	2.246881	2.247436	-6.742309
O	3.522858	3.524256	-5.465490
O	-0.970903	5.465490	-8.019128
O	0.970903	3.524256	-8.019128
O	1.275978	5.771692	-5.771692
O	5.464664	5.465490	-5.465490
O	1.275978	7.712926	-7.712926
O	3.217784	7.712926	-5.771692
O	3.217784	5.771692	-7.712926
Re	-1.123440	3.371154	-7.866027
Re	3.370321	5.618591	-5.618591
Re	5.617202	3.371154	-5.618591
Re	1.123440	5.618591	-7.866027
Cd	4.493761	-4.494873	0.000000
Cd	6.740642	-6.742309	-2.247436
O	8.016620	-5.465490	-0.970617
O	3.522858	-3.524256	-3.524256
O	5.464664	-5.465490	-3.524256
O	5.769739	-3.218053	-1.276819
O	9.958425	-3.524256	-0.970617
O	5.769739	-1.276819	-3.218053
O	7.711545	-1.276819	-1.276819
O	7.711545	-3.218053	-3.218053
Re	3.370321	-5.618591	-3.371154
Re	7.864082	-3.371154	-1.123718
Re	10.110963	-5.618591	-1.123718
Re	5.617202	-3.371154	-3.371154
Cd	8.987522	0.000000	0.000000
Cd	11.234403	-2.247436	-2.247436
O	12.510381	-0.970617	-0.970617
O	8.016620	0.970617	-3.524256
O	9.958425	-0.970617	-3.524256
O	10.263500	1.276819	-1.276819
O	14.452187	0.970617	-0.970617
O	10.263500	3.218053	-3.218053
O	12.205306	3.218053	-1.276819
O	12.205306	1.276819	-3.218053
Re	7.864082	-1.123718	-3.371154
Re	12.357843	1.123718	-1.123718
Re	14.604724	-1.123718	-1.123718
Re	10.110963	1.123718	-3.371154
Cd	0.000000	-4.494873	-4.494873
Cd	2.246881	-6.742309	-6.742309
O	3.522858	-5.465490	-5.465490
O	-0.970903	-3.524256	-8.019128
O	0.970903	-5.465490	-8.019128
O	1.275978	-3.218053	-5.771692
O	5.464664	-3.524256	-5.465490
O	1.275978	-1.276819	-7.712926
O	3.217784	-1.276819	-5.771692
O	3.217784	-3.218053	-7.712926
Re	-1.123440	-5.618591	-7.866027
Re	3.370321	-3.371154	-5.618591
Re	5.617202	-5.618591	-5.618591
Re	1.123440	-3.371154	-7.866027
Cd	4.493761	0.000000	-4.494873
Cd	6.740642	-2.247436	-6.742309
O	8.016620	-0.970617	-5.465490
O	3.522858	0.970617	-8.019128
O	5.464664	-0.970617	-8.019128
O	5.769739	1.276819	-5.771692
O	9.958425	0.970617	-5.465490
O	5.769739	3.218053	-7.712926
O	7.711545	3.218053	-5.771692
O	7.711545	1.276819	-7.712926
Re	3.370321	-1.123718	-7.866027
Re	7.864082	1.123718	-5.618591
Re	10.110963	-1.123718	-5.618591
Re	5.617202	1.123718	-7.866027
