40

Eu	0.000000	0.000000	0.000000
O	2.025374	2.025374	0.000000
O	2.025374	0.000000	2.025374
O	0.000000	2.025374	2.025374
Sn	2.025374	2.025374	2.025374
Eu	0.000000	0.000000	4.050748
O	2.025374	2.025374	4.050748
O	2.025374	0.000000	6.076122
O	0.000000	2.025374	6.076122
Sn	2.025374	2.025374	6.076122
Eu	0.000000	4.050748	0.000000
O	2.025374	6.076122	0.000000
O	2.025374	4.050748	2.025374
O	0.000000	6.076122	2.025374
Sn	2.025374	6.076122	2.025374
Eu	0.000000	4.050748	4.050748
O	2.025374	6.076122	4.050748
O	2.025374	4.050748	6.076122
O	0.000000	6.076122	6.076122
Sn	2.025374	6.076122	6.076122
Eu	4.050748	0.000000	0.000000
O	6.076122	2.025374	0.000000
O	6.076122	0.000000	2.025374
O	4.050748	2.025374	2.025374
Sn	6.076122	2.025374	2.025374
Eu	4.050748	0.000000	4.050748
O	6.076122	2.025374	4.050748
O	6.076122	0.000000	6.076122
O	4.050748	2.025374	6.076122
Sn	6.076122	2.025374	6.076122
Eu	4.050748	4.050748	0.000000
O	6.076122	6.076122	0.000000
O	6.076122	4.050748	2.025374
O	4.050748	6.076122	2.025374
Sn	6.076122	6.076122	2.025374
Eu	4.050748	4.050748	4.050748
O	6.076122	6.076122	4.050748
O	6.076122	4.050748	6.076122
O	4.050748	6.076122	6.076122
Sn	6.076122	6.076122	6.076122
