40

Ag	0.000000	0.000000	0.000000
In	2.107060	2.107060	2.107060
O	0.000000	2.107060	2.107060
O	2.107060	0.000000	2.107060
O	2.107060	2.107060	0.000000
Ag	0.000000	0.000000	4.214120
In	2.107060	2.107060	6.321179
O	0.000000	2.107060	6.321179
O	2.107060	0.000000	6.321179
O	2.107060	2.107060	4.214120
Ag	0.000000	4.214120	0.000000
In	2.107060	6.321179	2.107060
O	0.000000	6.321179	2.107060
O	2.107060	4.214120	2.107060
O	2.107060	6.321179	0.000000
Ag	0.000000	4.214120	4.214120
In	2.107060	6.321179	6.321179
O	0.000000	6.321179	6.321179
O	2.107060	4.214120	6.321179
O	2.107060	6.321179	4.214120
Ag	4.214120	0.000000	0.000000
In	6.321179	2.107060	2.107060
O	4.214120	2.107060	2.107060
O	6.321179	0.000000	2.107060
O	6.321179	2.107060	0.000000
Ag	4.214120	0.000000	4.214120
In	6.321179	2.107060	6.321179
O	4.214120	2.107060	6.321179
O	6.321179	0.000000	6.321179
O	6.321179	2.107060	4.214120
Ag	4.214120	4.214120	0.000000
In	6.321179	6.321179	2.107060
O	4.214120	6.321179	2.107060
O	6.321179	4.214120	2.107060
O	6.321179	6.321179	0.000000
Ag	4.214120	4.214120	4.214120
In	6.321179	6.321179	6.321179
O	4.214120	6.321179	6.321179
O	6.321179	4.214120	6.321179
O	6.321179	6.321179	4.214120
