40

Ir	1.954230	1.954230	1.954230
O	1.954230	1.954230	0.000000
O	1.954230	0.000000	1.954230
O	0.000000	1.954230	1.954230
Pd	0.000000	0.000000	0.000000
Ir	1.954230	1.954230	5.862691
O	1.954230	1.954230	3.908461
O	1.954230	0.000000	5.862691
O	0.000000	1.954230	5.862691
Pd	0.000000	0.000000	3.908461
Ir	1.954230	5.862691	1.954230
O	1.954230	5.862691	0.000000
O	1.954230	3.908461	1.954230
O	0.000000	5.862691	1.954230
Pd	0.000000	3.908461	0.000000
Ir	1.954230	5.862691	5.862691
O	1.954230	5.862691	3.908461
O	1.954230	3.908461	5.862691
O	0.000000	5.862691	5.862691
Pd	0.000000	3.908461	3.908461
Ir	5.862691	1.954230	1.954230
O	5.862691	1.954230	0.000000
O	5.862691	0.000000	1.954230
O	3.908461	1.954230	1.954230
Pd	3.908461	0.000000	0.000000
Ir	5.862691	1.954230	5.862691
O	5.862691	1.954230	3.908461
O	5.862691	0.000000	5.862691
O	3.908461	1.954230	5.862691
Pd	3.908461	0.000000	3.908461
Ir	5.862691	5.862691	1.954230
O	5.862691	5.862691	0.000000
O	5.862691	3.908461	1.954230
O	3.908461	5.862691	1.954230
Pd	3.908461	3.908461	0.000000
Ir	5.862691	5.862691	5.862691
O	5.862691	5.862691	3.908461
O	5.862691	3.908461	5.862691
O	3.908461	5.862691	5.862691
Pd	3.908461	3.908461	3.908461
