40

K	2.215483	2.215483	2.215483
O	0.000000	2.215483	2.215483
O	2.215483	0.000000	2.215483
O	2.215483	2.215483	0.000000
Ti	0.000000	0.000000	0.000000
K	2.215483	2.215483	6.646450
O	0.000000	2.215483	6.646450
O	2.215483	0.000000	6.646450
O	2.215483	2.215483	4.430967
Ti	0.000000	0.000000	4.430967
K	2.215483	6.646450	2.215483
O	0.000000	6.646450	2.215483
O	2.215483	4.430967	2.215483
O	2.215483	6.646450	0.000000
Ti	0.000000	4.430967	0.000000
K	2.215483	6.646450	6.646450
O	0.000000	6.646450	6.646450
O	2.215483	4.430967	6.646450
O	2.215483	6.646450	4.430967
Ti	0.000000	4.430967	4.430967
K	6.646450	2.215483	2.215483
O	4.430967	2.215483	2.215483
O	6.646450	0.000000	2.215483
O	6.646450	2.215483	0.000000
Ti	4.430967	0.000000	0.000000
K	6.646450	2.215483	6.646450
O	4.430967	2.215483	6.646450
O	6.646450	0.000000	6.646450
O	6.646450	2.215483	4.430967
Ti	4.430967	0.000000	4.430967
K	6.646450	6.646450	2.215483
O	4.430967	6.646450	2.215483
O	6.646450	4.430967	2.215483
O	6.646450	6.646450	0.000000
Ti	4.430967	4.430967	0.000000
K	6.646450	6.646450	6.646450
O	4.430967	6.646450	6.646450
O	6.646450	4.430967	6.646450
O	6.646450	6.646450	4.430967
Ti	4.430967	4.430967	4.430967
