320

In	4.545960	3.217127	1.862127
In	1.502961	5.362533	1.862127
In	4.545960	-0.021283	3.717118
In	-1.547237	4.274606	3.717118
In	1.502961	-1.106642	5.567731
In	-1.547237	1.043841	5.567731
O	3.688709	2.531008	-0.009403
O	1.144707	4.324606	-0.009403
O	5.373994	0.859393	1.500314
O	-0.995918	5.350375	1.500314
O	3.644018	5.168597	1.553964
O	2.044173	2.899411	2.031711
O	3.688709	-1.288545	2.178472
O	-2.452860	3.041448	2.178472
O	2.044173	0.285730	3.528852
O	-0.417605	2.021359	3.528852
O	1.144707	-2.195925	3.725617
O	-2.452860	0.340470	3.725617
O	4.172066	2.117481	3.696659
O	0.592833	4.640949	3.696659
O	5.077258	4.597362	3.905043
O	2.624493	6.326636	3.905043
O	3.644018	-1.274349	5.244544
O	-2.424475	3.004123	5.244544
O	-0.995918	-1.412589	5.374202
O	0.592833	0.840861	5.873385
O	5.077258	1.042662	5.941208
O	-0.723614	5.132453	5.941208
O	2.624493	0.167824	7.432867
O	-0.723614	2.528341	7.432867
Sb	4.383011	6.216768	0.003053
Sb	7.414799	1.181432	2.062522
Sb	-1.378194	7.380759	2.062522
Sb	4.603681	6.529762	3.558770
Sb	1.563603	2.217781	3.871761
Sb	4.383011	-3.142422	5.364084
Sb	-4.432239	3.072597	5.364084
Sb	-1.378194	-1.954801	7.410017
Sb	4.603681	-0.233630	7.432904
Sb	-1.766634	4.257636	7.432904
In	1.484148	-1.125682	9.294326
In	-1.558851	1.019725	9.294326
In	1.484148	-4.364091	11.149317
In	-4.609049	-0.068202	11.149317
In	-1.558851	-5.449450	12.999930
In	-4.609049	-3.298967	12.999930
O	0.626897	-1.811801	7.422796
O	-1.917105	-0.018202	7.422796
O	2.312182	-3.483415	8.932513
O	-4.057730	1.007566	8.932513
O	0.582206	0.825789	8.986163
O	-1.017639	-1.443397	9.463910
O	0.626897	-5.631354	9.610671
O	-5.514672	-1.301361	9.610671
O	-1.017639	-4.057078	10.961051
O	-3.479417	-2.321450	10.961051
O	-1.917105	-6.538733	11.157816
O	-5.514672	-4.002339	11.157816
O	1.110254	-2.225328	11.128858
O	-2.468979	0.298141	11.128858
O	2.015446	0.254553	11.337242
O	-0.437319	1.983827	11.337242
O	0.582206	-5.617157	12.676743
O	-5.486287	-1.338685	12.676743
O	-4.057730	-5.755397	12.806401
O	-2.468979	-3.501947	13.305584
O	2.015446	-3.300146	13.373407
O	-3.785426	0.789645	13.373407
O	-0.437319	-4.174984	14.865066
O	-3.785426	-1.814467	14.865066
Sb	1.321199	1.873960	7.435252
Sb	4.352987	-3.161377	9.494721
Sb	-4.440006	3.037951	9.494721
Sb	1.541869	2.186954	10.990969
Sb	-1.498209	-2.125028	11.303960
Sb	1.321199	-7.485230	12.796283
Sb	-7.494051	-1.270211	12.796283
Sb	-4.440006	-6.297609	14.842216
Sb	1.541869	-4.576438	14.865103
Sb	-4.828446	-0.085172	14.865103
In	1.484148	11.825110	1.875993
In	-1.558851	13.970516	1.875993
In	1.484148	8.586700	3.730984
In	-4.609049	12.882589	3.730984
In	-1.558851	7.501342	5.581596
In	-4.609049	9.651824	5.581596
O	0.626897	11.138991	0.004462
O	-1.917105	12.932590	0.004462
O	2.312182	9.467377	1.514179
O	-4.057730	13.958358	1.514179
O	0.582206	13.776580	1.567830
O	-1.017639	11.507394	2.045576
O	0.626897	7.319438	2.192338
O	-5.514672	11.649431	2.192338
O	-1.017639	8.893714	3.542717
O	-3.479417	10.629342	3.542717
O	-1.917105	6.412058	3.739483
O	-5.514672	8.948453	3.739483
O	1.110254	10.725464	3.710525
O	-2.468979	13.248932	3.710525
O	2.015446	13.205345	3.918908
O	-0.437319	14.934619	3.918908
O	0.582206	7.333634	5.258409
O	-5.486287	11.612106	5.258409
O	-4.057730	7.195394	5.388067
O	-2.468979	9.448844	5.887251
O	2.015446	9.650645	5.955073
O	-3.785426	13.740436	5.955073
O	-0.437319	8.775807	7.446733
O	-3.785426	11.136324	7.446733
Sb	1.321199	14.824751	0.016919
Sb	4.352987	9.789415	2.076387
Sb	-4.440006	15.988742	2.076387
Sb	1.541869	15.137745	3.572636
Sb	-1.498209	10.825764	3.885627
Sb	1.321199	5.465561	5.377950
Sb	-7.494051	11.680580	5.377950
Sb	-4.440006	6.653182	7.423883
Sb	1.541869	8.374353	7.446769
Sb	-4.828446	12.865619	7.446769
In	-1.577664	7.482301	9.308192
In	-4.620663	9.627708	9.308192
In	-1.577664	4.243892	11.163183
In	-7.670861	8.539781	11.163183
In	-4.620663	3.158533	13.013795
In	-7.670861	5.309016	13.013795
O	-2.434915	6.796183	7.436661
O	-4.978917	8.589781	7.436661
O	-0.749630	5.124568	8.946378
O	-7.119542	9.615550	8.946378
O	-2.479606	9.433772	9.000029
O	-4.079451	7.164586	9.477775
O	-2.434915	2.976630	9.624537
O	-8.576484	7.306622	9.624537
O	-4.079451	4.550905	10.974916
O	-6.541229	6.286533	10.974916
O	-4.978917	2.069250	11.171682
O	-8.576484	4.605644	11.171682
O	-1.951558	6.382655	11.142724
O	-5.530791	8.906124	11.142724
O	-1.046366	8.862536	11.351107
O	-3.499131	10.591810	11.351107
O	-2.479606	2.990826	12.690608
O	-8.548099	7.269298	12.690608
O	-7.119542	2.852586	12.820266
O	-5.530791	5.106036	13.319450
O	-1.046366	5.307837	13.387272
O	-6.847238	9.397628	13.387272
O	-3.499131	4.432999	14.878932
O	-6.847238	6.793516	14.878932
Sb	-1.740613	10.481943	7.449118
Sb	1.291175	5.446606	9.508586
Sb	-7.501818	11.645934	9.508586
Sb	-1.519943	10.794937	11.004835
Sb	-4.560021	6.482955	11.317826
Sb	-1.740613	1.122753	12.810149
Sb	-10.555863	7.337772	12.810149
Sb	-7.501818	2.310374	14.856082
Sb	-1.519943	4.031545	14.878968
Sb	-7.890258	8.522811	14.878968
In	13.682261	3.225069	1.875993
In	10.639263	5.370475	1.875993
In	13.682261	-0.013341	3.730984
In	7.589064	4.282549	3.730984
In	10.639263	-1.098699	5.581596
In	7.589064	1.051783	5.581596
O	12.825011	2.538950	0.004462
O	10.281009	4.332549	0.004462
O	14.510295	0.867336	1.514179
O	8.140384	5.358317	1.514179
O	12.780320	5.176539	1.567830
O	11.180475	2.907353	2.045576
O	12.825011	-1.280603	2.192338
O	6.683442	3.049390	2.192338
O	11.180475	0.293673	3.542717
O	8.718697	2.029301	3.542717
O	10.281009	-2.187982	3.739483
O	6.683442	0.348412	3.739483
O	13.308368	2.125423	3.710525
O	9.729134	4.648891	3.710525
O	14.213560	4.605304	3.918908
O	11.760794	6.334578	3.918908
O	12.780320	-1.266407	5.258409
O	6.711827	3.012065	5.258409
O	8.140384	-1.404647	5.388067
O	9.729134	0.848803	5.887251
O	14.213560	1.050604	5.955073
O	8.412688	5.140395	5.955073
O	11.760794	0.175766	7.446733
O	8.412688	2.536283	7.446733
Sb	13.519312	6.224710	0.016919
Sb	16.551101	1.189374	2.076387
Sb	7.758108	7.388701	2.076387
Sb	13.739983	6.537705	3.572636
Sb	10.699905	2.225723	3.885627
Sb	13.519312	-3.134480	5.377950
Sb	4.704062	3.080539	5.377950
Sb	7.758108	-1.946859	7.423883
Sb	13.739983	-0.225687	7.446769
Sb	7.369668	4.265578	7.446769
In	10.620449	-1.117740	9.308192
In	7.577451	1.027667	9.308192
In	10.620450	-4.356149	11.163183
In	4.527252	-0.060260	11.163183
In	7.577451	-5.441508	13.013795
In	4.527252	-3.291025	13.013795
O	9.763199	-1.803858	7.436661
O	7.219197	-0.010260	7.436661
O	11.448483	-3.475473	8.946378
O	5.078572	1.015509	8.946378
O	9.718508	0.833731	9.000029
O	8.118663	-1.435455	9.477775
O	9.763199	-5.623411	9.624537
O	3.621630	-1.293419	9.624537
O	8.118663	-4.049136	10.974916
O	5.656885	-2.313507	10.974916
O	7.219197	-6.530791	11.171682
O	3.621630	-3.994397	11.171682
O	10.246556	-2.217385	11.142724
O	6.667322	0.306083	11.142724
O	11.151748	0.262495	11.351107
O	8.698982	1.991770	11.351107
O	9.718508	-5.609215	12.690608
O	3.650015	-1.330743	12.690608
O	5.078572	-5.747455	12.820266
O	6.667322	-3.494005	13.319450
O	11.151748	-3.292204	13.387272
O	5.350876	0.797587	13.387272
O	8.698982	-4.167042	14.878932
O	5.350876	-1.806525	14.878932
Sb	10.457500	1.881902	7.449118
Sb	13.489289	-3.153434	9.508586
Sb	4.696296	3.045893	9.508586
Sb	10.678171	2.194896	11.004835
Sb	7.638093	-2.117085	11.317826
Sb	10.457500	-7.477288	12.810149
Sb	1.642250	-1.262269	12.810149
Sb	4.696296	-6.289667	14.856082
Sb	10.678171	-4.568496	14.878968
Sb	4.307856	-0.077230	14.878968
In	10.620449	11.833052	1.889858
In	7.577451	13.978458	1.889858
In	10.620449	8.594642	3.744849
In	4.527252	12.890532	3.744849
In	7.577451	7.509284	5.595462
In	4.527252	9.659766	5.595462
O	9.763199	11.146933	0.018328
O	7.219197	12.940532	0.018328
O	11.448483	9.475319	1.528044
O	5.078572	13.966300	1.528044
O	9.718508	13.784522	1.581695
O	8.118663	11.515336	2.059442
O	9.763199	7.327380	2.206203
O	3.621630	11.657373	2.206203
O	8.118663	8.901656	3.556582
O	5.656885	10.637284	3.556582
O	7.219197	6.420001	3.753348
O	3.621630	8.956395	3.753348
O	10.246556	10.733406	3.724390
O	6.667322	13.256875	3.724390
O	11.151748	13.213287	3.932774
O	8.698982	14.942561	3.932774
O	9.718508	7.341576	5.272274
O	3.650015	11.620048	5.272274
O	5.078572	7.203337	5.401933
O	6.667322	9.456786	5.901116
O	11.151748	9.658587	5.968939
O	5.350876	13.748378	5.968939
O	8.698982	8.783749	7.460598
O	5.350876	11.144266	7.460598
Sb	10.457500	14.832693	0.030784
Sb	13.489289	9.797357	2.090253
Sb	4.696296	15.996684	2.090253
Sb	10.678171	15.145688	3.586501
Sb	7.638093	10.833706	3.899492
Sb	10.457500	5.473503	5.391815
Sb	1.642250	11.688522	5.391815
Sb	4.696296	6.661125	7.437748
Sb	10.678171	8.382296	7.460635
Sb	4.307856	12.873562	7.460635
In	7.558638	7.490243	9.322057
In	4.515639	9.635650	9.322057
In	7.558638	4.251834	11.177048
In	1.465440	8.547723	11.177048
In	4.515639	3.166475	13.027661
In	1.465440	5.316958	13.027661
O	6.701387	6.804125	7.450527
O	4.157385	8.597723	7.450527
O	8.386671	5.132510	8.960243
O	2.016760	9.623492	8.960243
O	6.656696	9.441714	9.013894
O	5.056851	7.172528	9.491641
O	6.701387	2.984572	9.638402
O	0.559818	7.314565	9.638402
O	5.056851	4.558847	10.988781
O	2.595073	6.294476	10.988781
O	4.157385	2.077192	11.185547
O	0.559818	4.613586	11.185547
O	7.184744	6.390598	11.156589
O	3.605510	8.914066	11.156589
O	8.089936	8.870478	11.364973
O	5.637170	10.599753	11.364973
O	6.656696	2.998768	12.704473
O	0.588203	7.277240	12.704473
O	2.016760	2.860528	12.834132
O	3.605510	5.113978	13.333315
O	8.089936	5.315779	13.401138
O	2.289064	9.405570	13.401138
O	5.637170	4.440941	14.892797
O	2.289064	6.801458	14.892797
Sb	7.395688	10.489885	7.462983
Sb	10.427477	5.454549	9.522452
Sb	1.634484	11.653876	9.522452
Sb	7.616359	10.802879	11.018700
Sb	4.576281	6.490898	11.331691
Sb	7.395688	1.130695	12.824014
Sb	-1.419562	7.345714	12.824014
Sb	1.634484	2.318316	14.869947
Sb	7.616359	4.039487	14.892834
Sb	1.246044	8.530753	14.892834
