40

K	2.298896	2.298896	2.298896
O	0.000000	2.298896	2.298896
O	2.298896	0.000000	2.298896
O	2.298896	2.298896	0.000000
Zn	0.000000	0.000000	0.000000
K	2.298896	2.298896	6.896689
O	0.000000	2.298896	6.896689
O	2.298896	0.000000	6.896689
O	2.298896	2.298896	4.597792
Zn	0.000000	0.000000	4.597792
K	2.298896	6.896689	2.298896
O	0.000000	6.896689	2.298896
O	2.298896	4.597792	2.298896
O	2.298896	6.896689	0.000000
Zn	0.000000	4.597792	0.000000
K	2.298896	6.896689	6.896689
O	0.000000	6.896689	6.896689
O	2.298896	4.597792	6.896689
O	2.298896	6.896689	4.597792
Zn	0.000000	4.597792	4.597792
K	6.896689	2.298896	2.298896
O	4.597792	2.298896	2.298896
O	6.896689	0.000000	2.298896
O	6.896689	2.298896	0.000000
Zn	4.597792	0.000000	0.000000
K	6.896689	2.298896	6.896689
O	4.597792	2.298896	6.896689
O	6.896689	0.000000	6.896689
O	6.896689	2.298896	4.597792
Zn	4.597792	0.000000	4.597792
K	6.896689	6.896689	2.298896
O	4.597792	6.896689	2.298896
O	6.896689	4.597792	2.298896
O	6.896689	6.896689	0.000000
Zn	4.597792	4.597792	0.000000
K	6.896689	6.896689	6.896689
O	4.597792	6.896689	6.896689
O	6.896689	4.597792	6.896689
O	6.896689	6.896689	4.597792
Zn	4.597792	4.597792	4.597792
