112

O	3.623934	-1.070979	-1.070979
O	-1.071331	1.070979	-3.625755
O	1.071331	-1.070979	-3.625755
O	1.276302	1.277388	-1.277388
O	5.766595	1.070979	-1.070979
O	1.276302	3.419346	-3.419346
O	3.418963	3.419346	-1.277388
O	3.418963	1.277388	-3.419346
Sm	0.000000	0.000000	0.000000
Sm	2.347632	-2.348367	-2.348367
Zr	-1.173816	-1.174183	-3.522550
Zr	3.521448	1.174183	-1.174183
Zr	5.869080	-1.174183	-1.174183
Zr	1.173816	1.174183	-3.522550
O	8.319198	3.625755	-1.070979
O	3.623934	5.767713	-3.625755
O	5.766595	3.625755	-3.625755
O	5.971566	5.974122	-1.277388
O	10.461859	5.767713	-1.070979
O	5.971566	8.116080	-3.419346
O	8.114227	8.116080	-1.277388
O	8.114227	5.974122	-3.419346
Sm	4.695264	4.696734	0.000000
Sm	7.042896	2.348367	-2.348367
Zr	3.521448	3.522550	-3.522550
Zr	8.216712	5.870917	-1.174183
Zr	10.564344	3.522550	-1.174183
Zr	5.869080	5.870917	-3.522550
O	-1.071331	-1.070979	-5.767713
O	-5.766595	1.070979	-8.322489
O	-3.623934	-1.070979	-8.322489
O	-3.418963	1.277388	-5.974122
O	1.071331	1.070979	-5.767713
O	-3.418963	3.419346	-8.116080
O	-1.276302	3.419346	-5.974122
O	-1.276302	1.277388	-8.116080
Sm	-4.695264	0.000000	-4.696734
Sm	-2.347632	-2.348367	-7.045101
Zr	-5.869080	-1.174183	-8.219284
Zr	-1.173816	1.174183	-5.870917
Zr	1.173816	-1.174183	-5.870917
Zr	-3.521448	1.174183	-8.219284
O	3.623934	3.625755	-5.767713
O	-1.071331	5.767713	-8.322489
O	1.071331	3.625755	-8.322489
O	1.276302	5.974122	-5.974122
O	5.766595	5.767713	-5.767713
O	1.276302	8.116080	-8.116080
O	3.418963	8.116080	-5.974122
O	3.418963	5.974122	-8.116080
Sm	0.000000	4.696734	-4.696734
Sm	2.347632	2.348367	-7.045101
Zr	-1.173816	3.522550	-8.219284
Zr	3.521448	5.870917	-5.870917
Zr	5.869080	3.522550	-5.870917
Zr	1.173816	5.870917	-8.219284
O	8.319198	-5.767713	-1.070979
O	3.623934	-3.625755	-3.625755
O	5.766595	-5.767713	-3.625755
O	5.971566	-3.419346	-1.277388
O	10.461859	-3.625755	-1.070979
O	5.971566	-1.277388	-3.419346
O	8.114227	-1.277388	-1.277388
O	8.114227	-3.419346	-3.419346
Sm	4.695264	-4.696734	0.000000
Sm	7.042896	-7.045101	-2.348367
Zr	3.521448	-5.870917	-3.522550
Zr	8.216712	-3.522550	-1.174183
Zr	10.564344	-5.870917	-1.174183
Zr	5.869080	-3.522550	-3.522550
O	13.014462	-1.070979	-1.070979
O	8.319198	1.070979	-3.625755
O	10.461859	-1.070979	-3.625755
O	10.666830	1.277388	-1.277388
O	15.157123	1.070979	-1.070979
O	10.666830	3.419346	-3.419346
O	12.809491	3.419346	-1.277388
O	12.809491	1.277388	-3.419346
Sm	9.390528	0.000000	0.000000
Sm	11.738160	-2.348367	-2.348367
Zr	8.216712	-1.174183	-3.522550
Zr	12.911976	1.174183	-1.174183
Zr	15.259608	-1.174183	-1.174183
Zr	10.564344	1.174183	-3.522550
O	3.623934	-5.767713	-5.767713
O	-1.071331	-3.625755	-8.322489
O	1.071331	-5.767713	-8.322489
O	1.276302	-3.419346	-5.974122
O	5.766595	-3.625755	-5.767713
O	1.276302	-1.277388	-8.116080
O	3.418963	-1.277388	-5.974122
O	3.418963	-3.419346	-8.116080
Sm	0.000000	-4.696734	-4.696734
Sm	2.347632	-7.045101	-7.045101
Zr	-1.173816	-5.870917	-8.219284
Zr	3.521448	-3.522550	-5.870917
Zr	5.869080	-5.870917	-5.870917
Zr	1.173816	-3.522550	-8.219284
O	8.319198	-1.070979	-5.767713
O	3.623934	1.070979	-8.322489
O	5.766595	-1.070979	-8.322489
O	5.971566	1.277388	-5.974122
O	10.461859	1.070979	-5.767713
O	5.971566	3.419346	-8.116080
O	8.114227	3.419346	-5.974122
O	8.114227	1.277388	-8.116080
Sm	4.695264	0.000000	-4.696734
Sm	7.042896	-2.348367	-7.045101
Zr	3.521448	-1.174183	-8.219284
Zr	8.216712	1.174183	-5.870917
Zr	10.564344	-1.174183	-5.870917
Zr	5.869080	1.174183	-8.219284
