40

La	2.241600	2.241600	2.241600
O	2.241600	2.241600	0.000000
O	0.000000	2.241600	2.241600
O	2.241600	0.000000	2.241600
Pb	0.000000	0.000000	0.000000
La	2.241600	2.241600	6.724803
O	2.241600	2.241600	4.483203
O	0.000000	2.241600	6.724803
O	2.241600	0.000000	6.724803
Pb	0.000000	0.000000	4.483203
La	2.241600	6.724803	2.241600
O	2.241600	6.724803	0.000000
O	0.000000	6.724803	2.241600
O	2.241600	4.483203	2.241600
Pb	0.000000	4.483203	0.000000
La	2.241600	6.724803	6.724803
O	2.241600	6.724803	4.483203
O	0.000000	6.724803	6.724803
O	2.241600	4.483203	6.724803
Pb	0.000000	4.483203	4.483203
La	6.724803	2.241600	2.241600
O	6.724803	2.241600	0.000000
O	4.483203	2.241600	2.241600
O	6.724803	0.000000	2.241600
Pb	4.483203	0.000000	0.000000
La	6.724803	2.241600	6.724803
O	6.724803	2.241600	4.483203
O	4.483203	2.241600	6.724803
O	6.724803	0.000000	6.724803
Pb	4.483203	0.000000	4.483203
La	6.724803	6.724803	2.241600
O	6.724803	6.724803	0.000000
O	4.483203	6.724803	2.241600
O	6.724803	4.483203	2.241600
Pb	4.483203	4.483203	0.000000
La	6.724803	6.724803	6.724803
O	6.724803	6.724803	4.483203
O	4.483203	6.724803	6.724803
O	6.724803	4.483203	6.724803
Pb	4.483203	4.483203	4.483203
