40

La	2.243020	2.243020	2.243020
O	2.243020	2.243020	0.000000
O	0.000000	2.243020	2.243020
O	2.243020	0.000000	2.243020
Pb	0.000000	0.000000	0.000000
La	2.243020	2.243020	6.729070
O	2.243020	2.243020	4.486050
O	0.000000	2.243020	6.729070
O	2.243020	0.000000	6.729070
Pb	0.000000	0.000000	4.486050
La	2.243020	6.729070	2.243020
O	2.243020	6.729070	0.000000
O	0.000000	6.729070	2.243020
O	2.243020	4.486050	2.243020
Pb	0.000000	4.486050	0.000000
La	2.243020	6.729070	6.729070
O	2.243020	6.729070	4.486050
O	0.000000	6.729070	6.729070
O	2.243020	4.486050	6.729070
Pb	0.000000	4.486050	4.486050
La	6.729070	2.243020	2.243020
O	6.729070	2.243020	0.000000
O	4.486050	2.243020	2.243020
O	6.729070	0.000000	2.243020
Pb	4.486050	0.000000	0.000000
La	6.729070	2.243020	6.729070
O	6.729070	2.243020	4.486050
O	4.486050	2.243020	6.729070
O	6.729070	0.000000	6.729070
Pb	4.486050	0.000000	4.486050
La	6.729070	6.729070	2.243020
O	6.729070	6.729070	0.000000
O	4.486050	6.729070	2.243020
O	6.729070	4.486050	2.243020
Pb	4.486050	4.486050	0.000000
La	6.729070	6.729070	6.729070
O	6.729070	6.729070	4.486050
O	4.486050	6.729070	6.729070
O	6.729070	4.486050	6.729070
Pb	4.486050	4.486050	4.486050
