40

Au	2.047712	2.047712	2.047712
N	0.000000	0.000000	0.000000
O	0.000000	2.047712	2.047712
O	2.047712	0.000000	2.047712
O	2.047712	2.047712	0.000000
Au	2.047712	2.047712	6.143137
N	0.000000	0.000000	4.095425
O	0.000000	2.047712	6.143137
O	2.047712	0.000000	6.143137
O	2.047712	2.047712	4.095425
Au	2.047712	6.143137	2.047712
N	0.000000	4.095425	0.000000
O	0.000000	6.143137	2.047712
O	2.047712	4.095425	2.047712
O	2.047712	6.143137	0.000000
Au	2.047712	6.143137	6.143137
N	0.000000	4.095425	4.095425
O	0.000000	6.143137	6.143137
O	2.047712	4.095425	6.143137
O	2.047712	6.143137	4.095425
Au	6.143137	2.047712	2.047712
N	4.095425	0.000000	0.000000
O	4.095425	2.047712	2.047712
O	6.143137	0.000000	2.047712
O	6.143137	2.047712	0.000000
Au	6.143137	2.047712	6.143137
N	4.095425	0.000000	4.095425
O	4.095425	2.047712	6.143137
O	6.143137	0.000000	6.143137
O	6.143137	2.047712	4.095425
Au	6.143137	6.143137	2.047712
N	4.095425	4.095425	0.000000
O	4.095425	6.143137	2.047712
O	6.143137	4.095425	2.047712
O	6.143137	6.143137	0.000000
Au	6.143137	6.143137	6.143137
N	4.095425	4.095425	4.095425
O	4.095425	6.143137	6.143137
O	6.143137	4.095425	6.143137
O	6.143137	6.143137	4.095425
