112

Ag	0.000000	0.000000	0.000000
Ag	2.323197	-2.324022	-2.324022
In	-1.161598	-1.162011	-3.486033
In	3.484795	1.162011	-1.162011
In	5.807992	-1.162011	-1.162011
In	1.161598	1.162011	-3.486033
O	3.613853	-1.032310	-1.032310
O	-1.032541	1.032310	-3.615734
O	1.032541	-1.032310	-3.615734
O	1.290656	1.291712	-1.291712
O	5.678935	1.032310	-1.032310
O	1.290656	3.356332	-3.356332
O	3.355738	3.356332	-1.291712
O	3.355738	1.291712	-3.356332
Ag	4.646394	4.648043	0.000000
Ag	6.969591	2.324022	-2.324022
In	3.484795	3.486033	-3.486033
In	8.131189	5.810054	-1.162011
In	10.454386	3.486033	-1.162011
In	5.807992	5.810054	-3.486033
O	8.260247	3.615734	-1.032310
O	3.613853	5.680353	-3.615734
O	5.678935	3.615734	-3.615734
O	5.937050	5.939755	-1.291712
O	10.325329	5.680353	-1.032310
O	5.937050	8.004375	-3.356332
O	8.002132	8.004375	-1.291712
O	8.002132	5.939755	-3.356332
Ag	-4.646394	0.000000	-4.648043
Ag	-2.323197	-2.324022	-6.972065
In	-5.807992	-1.162011	-8.134076
In	-1.161598	1.162011	-5.810054
In	1.161598	-1.162011	-5.810054
In	-3.484795	1.162011	-8.134076
O	-1.032541	-1.032310	-5.680353
O	-5.678935	1.032310	-8.263777
O	-3.613853	-1.032310	-8.263777
O	-3.355738	1.291712	-5.939755
O	1.032541	1.032310	-5.680353
O	-3.355738	3.356332	-8.004375
O	-1.290656	3.356332	-5.939755
O	-1.290656	1.291712	-8.004375
Ag	0.000000	4.648043	-4.648043
Ag	2.323197	2.324022	-6.972065
In	-1.161598	3.486033	-8.134076
In	3.484795	5.810054	-5.810054
In	5.807992	3.486033	-5.810054
In	1.161598	5.810054	-8.134076
O	3.613853	3.615734	-5.680353
O	-1.032541	5.680353	-8.263777
O	1.032541	3.615734	-8.263777
O	1.290656	5.939755	-5.939755
O	5.678935	5.680353	-5.680353
O	1.290656	8.004375	-8.004375
O	3.355738	8.004375	-5.939755
O	3.355738	5.939755	-8.004375
Ag	4.646394	-4.648043	0.000000
Ag	6.969591	-6.972065	-2.324022
In	3.484795	-5.810054	-3.486033
In	8.131189	-3.486033	-1.162011
In	10.454386	-5.810054	-1.162011
In	5.807992	-3.486033	-3.486033
O	8.260247	-5.680353	-1.032310
O	3.613853	-3.615734	-3.615734
O	5.678935	-5.680353	-3.615734
O	5.937050	-3.356332	-1.291712
O	10.325329	-3.615734	-1.032310
O	5.937050	-1.291712	-3.356332
O	8.002132	-1.291712	-1.291712
O	8.002132	-3.356332	-3.356332
Ag	9.292788	0.000000	0.000000
Ag	11.615985	-2.324022	-2.324022
In	8.131189	-1.162011	-3.486033
In	12.777583	1.162011	-1.162011
In	15.100780	-1.162011	-1.162011
In	10.454386	1.162011	-3.486033
O	12.906641	-1.032310	-1.032310
O	8.260247	1.032310	-3.615734
O	10.325329	-1.032310	-3.615734
O	10.583444	1.291712	-1.291712
O	14.971723	1.032310	-1.032310
O	10.583444	3.356332	-3.356332
O	12.648526	3.356332	-1.291712
O	12.648526	1.291712	-3.356332
Ag	0.000000	-4.648043	-4.648043
Ag	2.323197	-6.972065	-6.972065
In	-1.161598	-5.810054	-8.134076
In	3.484795	-3.486033	-5.810054
In	5.807992	-5.810054	-5.810054
In	1.161598	-3.486033	-8.134076
O	3.613853	-5.680353	-5.680353
O	-1.032541	-3.615734	-8.263777
O	1.032541	-5.680353	-8.263777
O	1.290656	-3.356332	-5.939755
O	5.678935	-3.615734	-5.680353
O	1.290656	-1.291712	-8.004375
O	3.355738	-1.291712	-5.939755
O	3.355738	-3.356332	-8.004375
Ag	4.646394	0.000000	-4.648043
Ag	6.969591	-2.324022	-6.972065
In	3.484795	-1.162011	-8.134076
In	8.131189	1.162011	-5.810054
In	10.454386	-1.162011	-5.810054
In	5.807992	1.162011	-8.134076
O	8.260247	-1.032310	-5.680353
O	3.613853	1.032310	-8.263777
O	5.678935	-1.032310	-8.263777
O	5.937050	1.291712	-5.939755
O	10.325329	1.032310	-5.680353
O	5.937050	3.356332	-8.004375
O	8.002132	3.356332	-5.939755
O	8.002132	1.291712	-8.004375
