40

Ag	2.079890	2.079890	2.079890
Ba_sv	0.000000	0.000000	0.000000
O	2.079890	0.000000	2.079890
O	0.000000	2.079890	2.079890
O	2.079890	2.079890	0.000000
Ag	2.079890	2.079890	6.239680
Ba_sv	0.000000	0.000000	4.159790
O	2.079890	0.000000	6.239680
O	0.000000	2.079890	6.239680
O	2.079890	2.079890	4.159790
Ag	2.079890	6.239680	2.079890
Ba_sv	0.000000	4.159790	0.000000
O	2.079890	4.159790	2.079890
O	0.000000	6.239680	2.079890
O	2.079890	6.239680	0.000000
Ag	2.079890	6.239680	6.239680
Ba_sv	0.000000	4.159790	4.159790
O	2.079890	4.159790	6.239680
O	0.000000	6.239680	6.239680
O	2.079890	6.239680	4.159790
Ag	6.239680	2.079890	2.079890
Ba_sv	4.159790	0.000000	0.000000
O	6.239680	0.000000	2.079890
O	4.159790	2.079890	2.079890
O	6.239680	2.079890	0.000000
Ag	6.239680	2.079890	6.239680
Ba_sv	4.159790	0.000000	4.159790
O	6.239680	0.000000	6.239680
O	4.159790	2.079890	6.239680
O	6.239680	2.079890	4.159790
Ag	6.239680	6.239680	2.079890
Ba_sv	4.159790	4.159790	0.000000
O	6.239680	4.159790	2.079890
O	4.159790	6.239680	2.079890
O	6.239680	6.239680	0.000000
Ag	6.239680	6.239680	6.239680
Ba_sv	4.159790	4.159790	4.159790
O	6.239680	4.159790	6.239680
O	4.159790	6.239680	6.239680
O	6.239680	6.239680	4.159790
