40

Ag	0.000000	0.000000	0.000000
Ba	2.271706	2.271706	2.271706
O	2.271706	2.271706	0.000000
O	2.271706	0.000000	2.271706
O	0.000000	2.271706	2.271706
Ag	0.000000	0.000000	4.543411
Ba	2.271706	2.271706	6.815116
O	2.271706	2.271706	4.543411
O	2.271706	0.000000	6.815116
O	0.000000	2.271706	6.815116
Ag	0.000000	4.543411	0.000000
Ba	2.271706	6.815116	2.271706
O	2.271706	6.815116	0.000000
O	2.271706	4.543411	2.271706
O	0.000000	6.815116	2.271706
Ag	0.000000	4.543411	4.543411
Ba	2.271706	6.815116	6.815116
O	2.271706	6.815116	4.543411
O	2.271706	4.543411	6.815116
O	0.000000	6.815116	6.815116
Ag	4.543411	0.000000	0.000000
Ba	6.815116	2.271706	2.271706
O	6.815116	2.271706	0.000000
O	6.815116	0.000000	2.271706
O	4.543411	2.271706	2.271706
Ag	4.543411	0.000000	4.543411
Ba	6.815116	2.271706	6.815116
O	6.815116	2.271706	4.543411
O	6.815116	0.000000	6.815116
O	4.543411	2.271706	6.815116
Ag	4.543411	4.543411	0.000000
Ba	6.815116	6.815116	2.271706
O	6.815116	6.815116	0.000000
O	6.815116	4.543411	2.271706
O	4.543411	6.815116	2.271706
Ag	4.543411	4.543411	4.543411
Ba	6.815116	6.815116	6.815116
O	6.815116	6.815116	4.543411
O	6.815116	4.543411	6.815116
O	4.543411	6.815116	6.815116
