112

O	3.385670	-0.974760	-0.974760
O	-0.974795	0.974760	-3.387586
O	0.974795	-0.974760	-3.387586
O	1.205437	1.206413	-1.206413
O	5.335260	0.974760	-0.974760
O	1.205437	3.155933	-3.155933
O	3.155028	3.155933	-1.206413
O	3.155028	1.206413	-3.155933
Rh	0.000000	0.000000	0.000000
Rh	2.180233	-2.181173	-2.181173
Tc	-1.090116	-1.090587	-3.271760
Tc	3.270349	1.090587	-1.090587
Tc	5.450581	-1.090587	-1.090587
Tc	1.090116	1.090587	-3.271760
O	7.746135	3.387586	-0.974760
O	3.385670	5.337106	-3.387586
O	5.335260	3.387586	-3.387586
O	5.565902	5.568759	-1.206413
O	9.695726	5.337106	-0.974760
O	5.565902	7.518279	-3.155933
O	7.515493	7.518279	-1.206413
O	7.515493	5.568759	-3.155933
Rh	4.360465	4.362346	0.000000
Rh	6.540698	2.181173	-2.181173
Tc	3.270349	3.271760	-3.271760
Tc	7.630814	5.452933	-1.090587
Tc	9.811047	3.271760	-1.090587
Tc	5.450581	5.452933	-3.271760
O	-0.974795	-0.974760	-5.337106
O	-5.335260	0.974760	-7.749932
O	-3.385670	-0.974760	-7.749932
O	-3.155028	1.206413	-5.568759
O	0.974795	0.974760	-5.337106
O	-3.155028	3.155933	-7.518279
O	-1.205437	3.155933	-5.568759
O	-1.205437	1.206413	-7.518279
Rh	-4.360465	0.000000	-4.362346
Rh	-2.180233	-2.181173	-6.543519
Tc	-5.450581	-1.090587	-7.634106
Tc	-1.090116	1.090587	-5.452933
Tc	1.090116	-1.090587	-5.452933
Tc	-3.270349	1.090587	-7.634106
O	3.385670	3.387586	-5.337106
O	-0.974795	5.337106	-7.749932
O	0.974795	3.387586	-7.749932
O	1.205437	5.568759	-5.568759
O	5.335260	5.337106	-5.337106
O	1.205437	7.518279	-7.518279
O	3.155028	7.518279	-5.568759
O	3.155028	5.568759	-7.518279
Rh	0.000000	4.362346	-4.362346
Rh	2.180233	2.181173	-6.543519
Tc	-1.090116	3.271760	-7.634106
Tc	3.270349	5.452933	-5.452933
Tc	5.450581	3.271760	-5.452933
Tc	1.090116	5.452933	-7.634106
O	7.746135	-5.337106	-0.974760
O	3.385670	-3.387586	-3.387586
O	5.335260	-5.337106	-3.387586
O	5.565902	-3.155933	-1.206413
O	9.695726	-3.387586	-0.974760
O	5.565902	-1.206413	-3.155933
O	7.515493	-1.206413	-1.206413
O	7.515493	-3.155933	-3.155933
Rh	4.360465	-4.362346	0.000000
Rh	6.540698	-6.543519	-2.181173
Tc	3.270349	-5.452933	-3.271760
Tc	7.630814	-3.271760	-1.090587
Tc	9.811047	-5.452933	-1.090587
Tc	5.450581	-3.271760	-3.271760
O	12.106600	-0.974760	-0.974760
O	7.746135	0.974760	-3.387586
O	9.695726	-0.974760	-3.387586
O	9.926368	1.206413	-1.206413
O	14.056191	0.974760	-0.974760
O	9.926368	3.155933	-3.155933
O	11.875958	3.155933	-1.206413
O	11.875958	1.206413	-3.155933
Rh	8.720930	0.000000	0.000000
Rh	10.901163	-2.181173	-2.181173
Tc	7.630814	-1.090587	-3.271760
Tc	11.991279	1.090587	-1.090587
Tc	14.171512	-1.090587	-1.090587
Tc	9.811047	1.090587	-3.271760
O	3.385670	-5.337106	-5.337106
O	-0.974795	-3.387586	-7.749932
O	0.974795	-5.337106	-7.749932
O	1.205437	-3.155933	-5.568759
O	5.335260	-3.387586	-5.337106
O	1.205437	-1.206413	-7.518279
O	3.155028	-1.206413	-5.568759
O	3.155028	-3.155933	-7.518279
Rh	0.000000	-4.362346	-4.362346
Rh	2.180233	-6.543519	-6.543519
Tc	-1.090116	-5.452933	-7.634106
Tc	3.270349	-3.271760	-5.452933
Tc	5.450581	-5.452933	-5.452933
Tc	1.090116	-3.271760	-7.634106
O	7.746135	-0.974760	-5.337106
O	3.385670	0.974760	-7.749932
O	5.335260	-0.974760	-7.749932
O	5.565902	1.206413	-5.568759
O	9.695726	0.974760	-5.337106
O	5.565902	3.155933	-7.518279
O	7.515493	3.155933	-5.568759
O	7.515493	1.206413	-7.518279
Rh	4.360465	0.000000	-4.362346
Rh	6.540698	-2.181173	-6.543519
Tc	3.270349	-1.090587	-7.634106
Tc	7.630814	1.090587	-5.452933
Tc	9.811047	-1.090587	-5.452933
Tc	5.450581	1.090587	-7.634106
