40

Na	2.143373	2.143373	2.143373
O	0.000000	2.143373	2.143373
O	2.143373	0.000000	2.143373
O	2.143373	2.143373	0.000000
S	0.000000	0.000000	0.000000
Na	2.143373	2.143373	6.430119
O	0.000000	2.143373	6.430119
O	2.143373	0.000000	6.430119
O	2.143373	2.143373	4.286746
S	0.000000	0.000000	4.286746
Na	2.143373	6.430119	2.143373
O	0.000000	6.430119	2.143373
O	2.143373	4.286746	2.143373
O	2.143373	6.430119	0.000000
S	0.000000	4.286746	0.000000
Na	2.143373	6.430119	6.430119
O	0.000000	6.430119	6.430119
O	2.143373	4.286746	6.430119
O	2.143373	6.430119	4.286746
S	0.000000	4.286746	4.286746
Na	6.430119	2.143373	2.143373
O	4.286746	2.143373	2.143373
O	6.430119	0.000000	2.143373
O	6.430119	2.143373	0.000000
S	4.286746	0.000000	0.000000
Na	6.430119	2.143373	6.430119
O	4.286746	2.143373	6.430119
O	6.430119	0.000000	6.430119
O	6.430119	2.143373	4.286746
S	4.286746	0.000000	4.286746
Na	6.430119	6.430119	2.143373
O	4.286746	6.430119	2.143373
O	6.430119	4.286746	2.143373
O	6.430119	6.430119	0.000000
S	4.286746	4.286746	0.000000
Na	6.430119	6.430119	6.430119
O	4.286746	6.430119	6.430119
O	6.430119	4.286746	6.430119
O	6.430119	6.430119	4.286746
S	4.286746	4.286746	4.286746
