40

O	2.139937	2.139937	0.000000
O	2.139937	0.000000	2.139937
O	0.000000	2.139937	2.139937
Rb	0.000000	0.000000	0.000000
Zr	2.139937	2.139937	2.139937
O	2.139937	2.139937	4.279874
O	2.139937	0.000000	6.419811
O	0.000000	2.139937	6.419811
Rb	0.000000	0.000000	4.279874
Zr	2.139937	2.139937	6.419811
O	2.139937	6.419811	0.000000
O	2.139937	4.279874	2.139937
O	0.000000	6.419811	2.139937
Rb	0.000000	4.279874	0.000000
Zr	2.139937	6.419811	2.139937
O	2.139937	6.419811	4.279874
O	2.139937	4.279874	6.419811
O	0.000000	6.419811	6.419811
Rb	0.000000	4.279874	4.279874
Zr	2.139937	6.419811	6.419811
O	6.419811	2.139937	0.000000
O	6.419811	0.000000	2.139937
O	4.279874	2.139937	2.139937
Rb	4.279874	0.000000	0.000000
Zr	6.419811	2.139937	2.139937
O	6.419811	2.139937	4.279874
O	6.419811	0.000000	6.419811
O	4.279874	2.139937	6.419811
Rb	4.279874	0.000000	4.279874
Zr	6.419811	2.139937	6.419811
O	6.419811	6.419811	0.000000
O	6.419811	4.279874	2.139937
O	4.279874	6.419811	2.139937
Rb	4.279874	4.279874	0.000000
Zr	6.419811	6.419811	2.139937
O	6.419811	6.419811	4.279874
O	6.419811	4.279874	6.419811
O	4.279874	6.419811	6.419811
Rb	4.279874	4.279874	4.279874
Zr	6.419811	6.419811	6.419811
