40

O	0.000000	2.139449	2.139449
O	2.139449	0.000000	2.139449
O	2.139449	2.139449	0.000000
Rb	0.000000	0.000000	0.000000
Zr	2.139449	2.139449	2.139449
O	0.000000	2.139449	6.418346
O	2.139449	0.000000	6.418346
O	2.139449	2.139449	4.278897
Rb	0.000000	0.000000	4.278897
Zr	2.139449	2.139449	6.418346
O	0.000000	6.418346	2.139449
O	2.139449	4.278897	2.139449
O	2.139449	6.418346	0.000000
Rb	0.000000	4.278897	0.000000
Zr	2.139449	6.418346	2.139449
O	0.000000	6.418346	6.418346
O	2.139449	4.278897	6.418346
O	2.139449	6.418346	4.278897
Rb	0.000000	4.278897	4.278897
Zr	2.139449	6.418346	6.418346
O	4.278897	2.139449	2.139449
O	6.418346	0.000000	2.139449
O	6.418346	2.139449	0.000000
Rb	4.278897	0.000000	0.000000
Zr	6.418346	2.139449	2.139449
O	4.278897	2.139449	6.418346
O	6.418346	0.000000	6.418346
O	6.418346	2.139449	4.278897
Rb	4.278897	0.000000	4.278897
Zr	6.418346	2.139449	6.418346
O	4.278897	6.418346	2.139449
O	6.418346	4.278897	2.139449
O	6.418346	6.418346	0.000000
Rb	4.278897	4.278897	0.000000
Zr	6.418346	6.418346	2.139449
O	4.278897	6.418346	6.418346
O	6.418346	4.278897	6.418346
O	6.418346	6.418346	4.278897
Rb	4.278897	4.278897	4.278897
Zr	6.418346	6.418346	6.418346
