40

Cu	1.886146	1.886146	1.886146
O	0.000000	1.886146	1.886146
O	1.886146	0.000000	1.886146
O	1.886146	1.886146	0.000000
Se	0.000000	0.000000	0.000000
Cu	1.886146	1.886146	5.658437
O	0.000000	1.886146	5.658437
O	1.886146	0.000000	5.658437
O	1.886146	1.886146	3.772291
Se	0.000000	0.000000	3.772291
Cu	1.886146	5.658437	1.886146
O	0.000000	5.658437	1.886146
O	1.886146	3.772291	1.886146
O	1.886146	5.658437	0.000000
Se	0.000000	3.772291	0.000000
Cu	1.886146	5.658437	5.658437
O	0.000000	5.658437	5.658437
O	1.886146	3.772291	5.658437
O	1.886146	5.658437	3.772291
Se	0.000000	3.772291	3.772291
Cu	5.658437	1.886146	1.886146
O	3.772291	1.886146	1.886146
O	5.658437	0.000000	1.886146
O	5.658437	1.886146	0.000000
Se	3.772291	0.000000	0.000000
Cu	5.658437	1.886146	5.658437
O	3.772291	1.886146	5.658437
O	5.658437	0.000000	5.658437
O	5.658437	1.886146	3.772291
Se	3.772291	0.000000	3.772291
Cu	5.658437	5.658437	1.886146
O	3.772291	5.658437	1.886146
O	5.658437	3.772291	1.886146
O	5.658437	5.658437	0.000000
Se	3.772291	3.772291	0.000000
Cu	5.658437	5.658437	5.658437
O	3.772291	5.658437	5.658437
O	5.658437	3.772291	5.658437
O	5.658437	5.658437	3.772291
Se	3.772291	3.772291	3.772291
