40

O	0.000000	2.020936	2.020936
O	2.020936	0.000000	2.020936
O	2.020936	2.020936	0.000000
Ta	2.020936	2.020936	2.020936
W	0.000000	0.000000	0.000000
O	0.000000	2.020936	6.062808
O	2.020936	0.000000	6.062808
O	2.020936	2.020936	4.041872
Ta	2.020936	2.020936	6.062808
W	0.000000	0.000000	4.041872
O	0.000000	6.062808	2.020936
O	2.020936	4.041872	2.020936
O	2.020936	6.062808	0.000000
Ta	2.020936	6.062808	2.020936
W	0.000000	4.041872	0.000000
O	0.000000	6.062808	6.062808
O	2.020936	4.041872	6.062808
O	2.020936	6.062808	4.041872
Ta	2.020936	6.062808	6.062808
W	0.000000	4.041872	4.041872
O	4.041872	2.020936	2.020936
O	6.062808	0.000000	2.020936
O	6.062808	2.020936	0.000000
Ta	6.062808	2.020936	2.020936
W	4.041872	0.000000	0.000000
O	4.041872	2.020936	6.062808
O	6.062808	0.000000	6.062808
O	6.062808	2.020936	4.041872
Ta	6.062808	2.020936	6.062808
W	4.041872	0.000000	4.041872
O	4.041872	6.062808	2.020936
O	6.062808	4.041872	2.020936
O	6.062808	6.062808	0.000000
Ta	6.062808	6.062808	2.020936
W	4.041872	4.041872	0.000000
O	4.041872	6.062808	6.062808
O	6.062808	4.041872	6.062808
O	6.062808	6.062808	4.041872
Ta	6.062808	6.062808	6.062808
W	4.041872	4.041872	4.041872
