40

Cl	0.000000	0.000000	0.000000
F	2.117377	2.117377	2.117377
O	0.000000	2.117377	2.117377
O	2.117377	0.000000	2.117377
O	2.117377	2.117377	0.000000
Cl	0.000000	0.000000	4.234754
F	2.117377	2.117377	6.352132
O	0.000000	2.117377	6.352132
O	2.117377	0.000000	6.352132
O	2.117377	2.117377	4.234754
Cl	0.000000	4.234754	0.000000
F	2.117377	6.352132	2.117377
O	0.000000	6.352132	2.117377
O	2.117377	4.234754	2.117377
O	2.117377	6.352132	0.000000
Cl	0.000000	4.234754	4.234754
F	2.117377	6.352132	6.352132
O	0.000000	6.352132	6.352132
O	2.117377	4.234754	6.352132
O	2.117377	6.352132	4.234754
Cl	4.234754	0.000000	0.000000
F	6.352132	2.117377	2.117377
O	4.234754	2.117377	2.117377
O	6.352132	0.000000	2.117377
O	6.352132	2.117377	0.000000
Cl	4.234754	0.000000	4.234754
F	6.352132	2.117377	6.352132
O	4.234754	2.117377	6.352132
O	6.352132	0.000000	6.352132
O	6.352132	2.117377	4.234754
Cl	4.234754	4.234754	0.000000
F	6.352132	6.352132	2.117377
O	4.234754	6.352132	2.117377
O	6.352132	4.234754	2.117377
O	6.352132	6.352132	0.000000
Cl	4.234754	4.234754	4.234754
F	6.352132	6.352132	6.352132
O	4.234754	6.352132	6.352132
O	6.352132	4.234754	6.352132
O	6.352132	6.352132	4.234754
