112

Au	0.000000	0.000000	0.000000
Au	2.185145	-2.185518	-2.185518
Ga	-1.092572	-1.092759	-3.278277
Ga	3.277717	1.092759	-1.092759
Ga	5.462861	-1.092759	-1.092759
Ga	1.092572	1.092759	-3.278277
O	3.447014	-0.922746	-0.922746
O	-0.923275	0.922746	-3.448291
O	0.923275	-0.922746	-3.448291
O	1.261870	1.262772	-1.262772
O	5.293564	0.922746	-0.922746
O	1.261870	3.108264	-3.108264
O	3.108419	3.108264	-1.262772
O	3.108419	1.262772	-3.108264
Au	4.370289	4.371037	0.000000
Au	6.555434	2.185518	-2.185518
Ga	3.277717	3.278277	-3.278277
Ga	7.648006	5.463796	-1.092759
Ga	9.833151	3.278277	-1.092759
Ga	5.462861	5.463796	-3.278277
O	7.817304	3.448291	-0.922746
O	3.447014	5.293783	-3.448291
O	5.293564	3.448291	-3.448291
O	5.632159	5.633809	-1.262772
O	9.663853	5.293783	-0.922746
O	5.632159	7.479301	-3.108264
O	7.478708	7.479301	-1.262772
O	7.478708	5.633809	-3.108264
Au	-4.370289	0.000000	-4.371037
Au	-2.185145	-2.185518	-6.556555
Ga	-5.462861	-1.092759	-7.649314
Ga	-1.092572	1.092759	-5.463796
Ga	1.092572	-1.092759	-5.463796
Ga	-3.277717	1.092759	-7.649314
O	-0.923275	-0.922746	-5.293783
O	-5.293564	0.922746	-7.819327
O	-3.447014	-0.922746	-7.819327
O	-3.108419	1.262772	-5.633809
O	0.923275	0.922746	-5.293783
O	-3.108419	3.108264	-7.479301
O	-1.261870	3.108264	-5.633809
O	-1.261870	1.262772	-7.479301
Au	0.000000	4.371037	-4.371037
Au	2.185145	2.185518	-6.556555
Ga	-1.092572	3.278277	-7.649314
Ga	3.277717	5.463796	-5.463796
Ga	5.462861	3.278277	-5.463796
Ga	1.092572	5.463796	-7.649314
O	3.447014	3.448291	-5.293783
O	-0.923275	5.293783	-7.819327
O	0.923275	3.448291	-7.819327
O	1.261870	5.633809	-5.633809
O	5.293564	5.293783	-5.293783
O	1.261870	7.479301	-7.479301
O	3.108419	7.479301	-5.633809
O	3.108419	5.633809	-7.479301
Au	4.370289	-4.371037	0.000000
Au	6.555434	-6.556555	-2.185518
Ga	3.277717	-5.463796	-3.278277
Ga	7.648006	-3.278277	-1.092759
Ga	9.833151	-5.463796	-1.092759
Ga	5.462861	-3.278277	-3.278277
O	7.817304	-5.293783	-0.922746
O	3.447014	-3.448291	-3.448291
O	5.293564	-5.293783	-3.448291
O	5.632159	-3.108264	-1.262772
O	9.663853	-3.448291	-0.922746
O	5.632159	-1.262772	-3.108264
O	7.478708	-1.262772	-1.262772
O	7.478708	-3.108264	-3.108264
Au	8.740578	0.000000	0.000000
Au	10.925723	-2.185518	-2.185518
Ga	7.648006	-1.092759	-3.278277
Ga	12.018295	1.092759	-1.092759
Ga	14.203440	-1.092759	-1.092759
Ga	9.833151	1.092759	-3.278277
O	12.187593	-0.922746	-0.922746
O	7.817304	0.922746	-3.448291
O	9.663853	-0.922746	-3.448291
O	10.002448	1.262772	-1.262772
O	14.034142	0.922746	-0.922746
O	10.002448	3.108264	-3.108264
O	11.848998	3.108264	-1.262772
O	11.848998	1.262772	-3.108264
Au	0.000000	-4.371037	-4.371037
Au	2.185145	-6.556555	-6.556555
Ga	-1.092572	-5.463796	-7.649314
Ga	3.277717	-3.278277	-5.463796
Ga	5.462861	-5.463796	-5.463796
Ga	1.092572	-3.278277	-7.649314
O	3.447014	-5.293783	-5.293783
O	-0.923275	-3.448291	-7.819327
O	0.923275	-5.293783	-7.819327
O	1.261870	-3.108264	-5.633809
O	5.293564	-3.448291	-5.293783
O	1.261870	-1.262772	-7.479301
O	3.108419	-1.262772	-5.633809
O	3.108419	-3.108264	-7.479301
Au	4.370289	0.000000	-4.371037
Au	6.555434	-2.185518	-6.556555
Ga	3.277717	-1.092759	-7.649314
Ga	7.648006	1.092759	-5.463796
Ga	9.833151	-1.092759	-5.463796
Ga	5.462861	1.092759	-7.649314
O	7.817304	-0.922746	-5.293783
O	3.447014	0.922746	-7.819327
O	5.293564	-0.922746	-7.819327
O	5.632159	1.262772	-5.633809
O	9.663853	0.922746	-5.293783
O	5.632159	3.108264	-7.479301
O	7.478708	3.108264	-5.633809
O	7.478708	1.262772	-7.479301
