64

Al	0.000000	-3.262895	-0.579077
Al	0.000001	-3.262895	-4.045899
O	-2.825749	0.000000	0.000000
O	-4.238619	-2.447174	0.000000
O	-1.412879	-2.447174	0.000000
O	0.000001	-3.262895	-2.312493
Tl	2.825749	-4.894337	-1.708209
Tl	-2.825748	-1.631443	-2.916767
Al	2.825750	-4.894343	-5.204057
Al	2.825750	-4.894343	-8.670879
O	0.000001	-1.631448	-4.624980
O	-1.412869	-4.078621	-4.624980
O	1.412871	-4.078621	-4.624980
O	2.825750	-4.894343	-6.937473
Tl	5.651499	-6.525785	-6.333189
Tl	0.000001	-3.262890	-7.541748
Al	-5.651498	-3.262895	-0.579077
Al	-5.651498	-3.262895	-4.045899
O	-8.477247	0.000000	0.000000
O	-9.890117	-2.447174	0.000000
O	-7.064377	-2.447174	0.000000
O	-5.651498	-3.262895	-2.312493
Tl	-2.825749	-4.894337	-1.708209
Tl	-8.477247	-1.631443	-2.916767
Al	-2.825748	-4.894343	-5.204057
Al	-2.825748	-4.894343	-8.670879
O	-5.651497	-1.631448	-4.624980
O	-7.064367	-4.078621	-4.624980
O	-4.238628	-4.078621	-4.624980
O	-2.825748	-4.894343	-6.937473
Tl	0.000001	-6.525785	-6.333189
Tl	-5.651497	-3.262890	-7.541748
Al	2.825750	-8.157236	-0.579077
Al	2.825750	-8.157236	-4.045899
O	0.000001	-4.894341	0.000000
O	-1.412869	-7.341514	0.000000
O	1.412871	-7.341514	0.000000
O	2.825750	-8.157236	-2.312493
Tl	5.651499	-9.788678	-1.708209
Tl	0.000001	-6.525783	-2.916767
Al	5.651500	-9.788683	-5.204057
Al	5.651500	-9.788684	-8.670879
O	2.825751	-6.525788	-4.624980
O	1.412881	-8.972962	-4.624980
O	4.238620	-8.972962	-4.624980
O	5.651500	-9.788683	-6.937473
Tl	8.477249	-11.420126	-6.333189
Tl	2.825751	-8.157231	-7.541748
Al	-2.825748	-8.157236	-0.579077
Al	-2.825748	-8.157236	-4.045899
O	-5.651497	-4.894341	0.000000
O	-7.064367	-7.341514	0.000000
O	-4.238628	-7.341514	0.000000
O	-2.825748	-8.157236	-2.312493
Tl	0.000001	-9.788678	-1.708209
Tl	-5.651497	-6.525783	-2.916767
Al	0.000001	-9.788683	-5.204057
Al	0.000002	-9.788684	-8.670879
O	-2.825748	-6.525788	-4.624980
O	-4.238618	-8.972962	-4.624980
O	-1.412878	-8.972962	-4.624980
O	0.000002	-9.788683	-6.937473
Tl	2.825750	-11.420126	-6.333189
Tl	-2.825747	-8.157231	-7.541748
