96

Bi	0.000000	0.000000	0.000000
Na	1.650087	1.650087	1.650087
Na	4.399498	1.650087	1.650087
Na	1.650087	4.399498	1.650087
Na	4.399498	4.399498	1.650087
Na	1.650087	1.650087	4.399498
Na	4.399498	1.650087	4.399498
Na	1.650087	4.399498	4.399498
Na	4.399498	4.399498	4.399498
O	3.024793	3.024793	0.000000
O	3.024793	0.000000	3.024793
O	0.000000	3.024793	3.024793
Bi	0.000000	0.000000	6.049584
Na	1.650087	1.650087	7.699672
Na	4.399498	1.650087	7.699672
Na	1.650087	4.399498	7.699672
Na	4.399498	4.399498	7.699672
Na	1.650087	1.650087	10.449082
Na	4.399498	1.650087	10.449082
Na	1.650087	4.399498	10.449082
Na	4.399498	4.399498	10.449082
O	3.024793	3.024793	6.049584
O	3.024793	0.000000	9.074377
O	0.000000	3.024793	9.074377
Bi	0.000000	6.049584	0.000000
Na	1.650087	7.699672	1.650087
Na	4.399498	7.699672	1.650087
Na	1.650087	10.449082	1.650087
Na	4.399498	10.449082	1.650087
Na	1.650087	7.699672	4.399498
Na	4.399498	7.699672	4.399498
Na	1.650087	10.449082	4.399498
Na	4.399498	10.449082	4.399498
O	3.024793	9.074377	0.000000
O	3.024793	6.049584	3.024793
O	0.000000	9.074377	3.024793
Bi	0.000000	6.049584	6.049584
Na	1.650087	7.699672	7.699672
Na	4.399498	7.699672	7.699672
Na	1.650087	10.449082	7.699672
Na	4.399498	10.449082	7.699672
Na	1.650087	7.699672	10.449082
Na	4.399498	7.699672	10.449082
Na	1.650087	10.449082	10.449082
Na	4.399498	10.449082	10.449082
O	3.024793	9.074377	6.049584
O	3.024793	6.049584	9.074377
O	0.000000	9.074377	9.074377
Bi	6.049584	0.000000	0.000000
Na	7.699672	1.650087	1.650087
Na	10.449082	1.650087	1.650087
Na	7.699672	4.399498	1.650087
Na	10.449082	4.399498	1.650087
Na	7.699672	1.650087	4.399498
Na	10.449082	1.650087	4.399498
Na	7.699672	4.399498	4.399498
Na	10.449082	4.399498	4.399498
O	9.074377	3.024793	0.000000
O	9.074377	0.000000	3.024793
O	6.049584	3.024793	3.024793
Bi	6.049584	0.000000	6.049584
Na	7.699672	1.650087	7.699672
Na	10.449082	1.650087	7.699672
Na	7.699672	4.399498	7.699672
Na	10.449082	4.399498	7.699672
Na	7.699672	1.650087	10.449082
Na	10.449082	1.650087	10.449082
Na	7.699672	4.399498	10.449082
Na	10.449082	4.399498	10.449082
O	9.074377	3.024793	6.049584
O	9.074377	0.000000	9.074377
O	6.049584	3.024793	9.074377
Bi	6.049584	6.049584	0.000000
Na	7.699672	7.699672	1.650087
Na	10.449082	7.699672	1.650087
Na	7.699672	10.449082	1.650087
Na	10.449082	10.449082	1.650087
Na	7.699672	7.699672	4.399498
Na	10.449082	7.699672	4.399498
Na	7.699672	10.449082	4.399498
Na	10.449082	10.449082	4.399498
O	9.074377	9.074377	0.000000
O	9.074377	6.049584	3.024793
O	6.049584	9.074377	3.024793
Bi	6.049584	6.049584	6.049584
Na	7.699672	7.699672	7.699672
Na	10.449082	7.699672	7.699672
Na	7.699672	10.449082	7.699672
Na	10.449082	10.449082	7.699672
Na	7.699672	7.699672	10.449082
Na	10.449082	7.699672	10.449082
Na	7.699672	10.449082	10.449082
Na	10.449082	10.449082	10.449082
O	9.074377	9.074377	6.049584
O	9.074377	6.049584	9.074377
O	6.049584	9.074377	9.074377
