40

Ag	0.000000	0.000000	0.000000
O	0.000000	2.491364	2.491364
O	2.491364	0.000000	2.491364
O	2.491364	2.491364	0.000000
Rb	2.491364	2.491364	2.491364
Ag	0.000000	0.000000	4.982728
O	0.000000	2.491364	7.474093
O	2.491364	0.000000	7.474093
O	2.491364	2.491364	4.982728
Rb	2.491364	2.491364	7.474093
Ag	0.000000	4.982728	0.000000
O	0.000000	7.474093	2.491364
O	2.491364	4.982728	2.491364
O	2.491364	7.474093	0.000000
Rb	2.491364	7.474093	2.491364
Ag	0.000000	4.982728	4.982728
O	0.000000	7.474093	7.474093
O	2.491364	4.982728	7.474093
O	2.491364	7.474093	4.982728
Rb	2.491364	7.474093	7.474093
Ag	4.982728	0.000000	0.000000
O	4.982728	2.491364	2.491364
O	7.474093	0.000000	2.491364
O	7.474093	2.491364	0.000000
Rb	7.474093	2.491364	2.491364
Ag	4.982728	0.000000	4.982728
O	4.982728	2.491364	7.474093
O	7.474093	0.000000	7.474093
O	7.474093	2.491364	4.982728
Rb	7.474093	2.491364	7.474093
Ag	4.982728	4.982728	0.000000
O	4.982728	7.474093	2.491364
O	7.474093	4.982728	2.491364
O	7.474093	7.474093	0.000000
Rb	7.474093	7.474093	2.491364
Ag	4.982728	4.982728	4.982728
O	4.982728	7.474093	7.474093
O	7.474093	4.982728	7.474093
O	7.474093	7.474093	4.982728
Rb	7.474093	7.474093	7.474093
