40

Ge	1.967179	1.967179	1.967179
I	0.000000	0.000000	0.000000
O	0.000000	1.967179	1.967179
O	1.967179	0.000000	1.967179
O	1.967179	1.967179	0.000000
Ge	1.967179	1.967179	5.901537
I	0.000000	0.000000	3.934358
O	0.000000	1.967179	5.901537
O	1.967179	0.000000	5.901537
O	1.967179	1.967179	3.934358
Ge	1.967179	5.901537	1.967179
I	0.000000	3.934358	0.000000
O	0.000000	5.901537	1.967179
O	1.967179	3.934358	1.967179
O	1.967179	5.901537	0.000000
Ge	1.967179	5.901537	5.901537
I	0.000000	3.934358	3.934358
O	0.000000	5.901537	5.901537
O	1.967179	3.934358	5.901537
O	1.967179	5.901537	3.934358
Ge	5.901537	1.967179	1.967179
I	3.934358	0.000000	0.000000
O	3.934358	1.967179	1.967179
O	5.901537	0.000000	1.967179
O	5.901537	1.967179	0.000000
Ge	5.901537	1.967179	5.901537
I	3.934358	0.000000	3.934358
O	3.934358	1.967179	5.901537
O	5.901537	0.000000	5.901537
O	5.901537	1.967179	3.934358
Ge	5.901537	5.901537	1.967179
I	3.934358	3.934358	0.000000
O	3.934358	5.901537	1.967179
O	5.901537	3.934358	1.967179
O	5.901537	5.901537	0.000000
Ge	5.901537	5.901537	5.901537
I	3.934358	3.934358	3.934358
O	3.934358	5.901537	5.901537
O	5.901537	3.934358	5.901537
O	5.901537	5.901537	3.934358
