40

Ge	0.000000	0.000000	0.000000
I	2.117700	2.117700	2.117700
O	0.000000	2.117700	2.117700
O	2.117700	0.000000	2.117700
O	2.117700	2.117700	0.000000
Ge	0.000000	0.000000	4.235401
I	2.117700	2.117700	6.353101
O	0.000000	2.117700	6.353101
O	2.117700	0.000000	6.353101
O	2.117700	2.117700	4.235401
Ge	0.000000	4.235401	0.000000
I	2.117700	6.353101	2.117700
O	0.000000	6.353101	2.117700
O	2.117700	4.235401	2.117700
O	2.117700	6.353101	0.000000
Ge	0.000000	4.235401	4.235401
I	2.117700	6.353101	6.353101
O	0.000000	6.353101	6.353101
O	2.117700	4.235401	6.353101
O	2.117700	6.353101	4.235401
Ge	4.235401	0.000000	0.000000
I	6.353101	2.117700	2.117700
O	4.235401	2.117700	2.117700
O	6.353101	0.000000	2.117700
O	6.353101	2.117700	0.000000
Ge	4.235401	0.000000	4.235401
I	6.353101	2.117700	6.353101
O	4.235401	2.117700	6.353101
O	6.353101	0.000000	6.353101
O	6.353101	2.117700	4.235401
Ge	4.235401	4.235401	0.000000
I	6.353101	6.353101	2.117700
O	4.235401	6.353101	2.117700
O	6.353101	4.235401	2.117700
O	6.353101	6.353101	0.000000
Ge	4.235401	4.235401	4.235401
I	6.353101	6.353101	6.353101
O	4.235401	6.353101	6.353101
O	6.353101	4.235401	6.353101
O	6.353101	6.353101	4.235401
