40

Dy	2.195310	2.195310	2.195310
O	2.195310	2.195310	0.000000
O	2.195310	0.000000	2.195310
O	0.000000	2.195310	2.195310
Pb	0.000000	0.000000	0.000000
Dy	2.195310	2.195310	6.585929
O	2.195310	2.195310	4.390620
O	2.195310	0.000000	6.585929
O	0.000000	2.195310	6.585929
Pb	0.000000	0.000000	4.390620
Dy	2.195310	6.585929	2.195310
O	2.195310	6.585929	0.000000
O	2.195310	4.390620	2.195310
O	0.000000	6.585929	2.195310
Pb	0.000000	4.390620	0.000000
Dy	2.195310	6.585929	6.585929
O	2.195310	6.585929	4.390620
O	2.195310	4.390620	6.585929
O	0.000000	6.585929	6.585929
Pb	0.000000	4.390620	4.390620
Dy	6.585929	2.195310	2.195310
O	6.585929	2.195310	0.000000
O	6.585929	0.000000	2.195310
O	4.390620	2.195310	2.195310
Pb	4.390620	0.000000	0.000000
Dy	6.585929	2.195310	6.585929
O	6.585929	2.195310	4.390620
O	6.585929	0.000000	6.585929
O	4.390620	2.195310	6.585929
Pb	4.390620	0.000000	4.390620
Dy	6.585929	6.585929	2.195310
O	6.585929	6.585929	0.000000
O	6.585929	4.390620	2.195310
O	4.390620	6.585929	2.195310
Pb	4.390620	4.390620	0.000000
Dy	6.585929	6.585929	6.585929
O	6.585929	6.585929	4.390620
O	6.585929	4.390620	6.585929
O	4.390620	6.585929	6.585929
Pb	4.390620	4.390620	4.390620
