40

Dy	0.000000	0.000000	0.000000
O	2.158694	2.158694	0.000000
O	2.158694	0.000000	2.158694
O	0.000000	2.158694	2.158694
Pb	2.158694	2.158694	2.158694
Dy	0.000000	0.000000	4.317387
O	2.158694	2.158694	4.317387
O	2.158694	0.000000	6.476081
O	0.000000	2.158694	6.476081
Pb	2.158694	2.158694	6.476081
Dy	0.000000	4.317387	0.000000
O	2.158694	6.476081	0.000000
O	2.158694	4.317387	2.158694
O	0.000000	6.476081	2.158694
Pb	2.158694	6.476081	2.158694
Dy	0.000000	4.317387	4.317387
O	2.158694	6.476081	4.317387
O	2.158694	4.317387	6.476081
O	0.000000	6.476081	6.476081
Pb	2.158694	6.476081	6.476081
Dy	4.317387	0.000000	0.000000
O	6.476081	2.158694	0.000000
O	6.476081	0.000000	2.158694
O	4.317387	2.158694	2.158694
Pb	6.476081	2.158694	2.158694
Dy	4.317387	0.000000	4.317387
O	6.476081	2.158694	4.317387
O	6.476081	0.000000	6.476081
O	4.317387	2.158694	6.476081
Pb	6.476081	2.158694	6.476081
Dy	4.317387	4.317387	0.000000
O	6.476081	6.476081	0.000000
O	6.476081	4.317387	2.158694
O	4.317387	6.476081	2.158694
Pb	6.476081	6.476081	2.158694
Dy	4.317387	4.317387	4.317387
O	6.476081	6.476081	4.317387
O	6.476081	4.317387	6.476081
O	4.317387	6.476081	6.476081
Pb	6.476081	6.476081	6.476081
