40

Dy	0.000000	0.000000	0.000000
O	2.134320	2.134320	0.000000
O	0.000000	2.134320	2.134320
O	2.134320	0.000000	2.134320
Pb	2.134320	2.134320	2.134320
Dy	0.000000	0.000000	4.268632
O	2.134320	2.134320	4.268632
O	0.000000	2.134320	6.402952
O	2.134320	0.000000	6.402952
Pb	2.134320	2.134320	6.402952
Dy	0.000000	4.268632	0.000000
O	2.134320	6.402952	0.000000
O	0.000000	6.402952	2.134320
O	2.134320	4.268632	2.134320
Pb	2.134320	6.402952	2.134320
Dy	0.000000	4.268632	4.268632
O	2.134320	6.402952	4.268632
O	0.000000	6.402952	6.402952
O	2.134320	4.268632	6.402952
Pb	2.134320	6.402952	6.402952
Dy	4.268632	0.000000	0.000000
O	6.402952	2.134320	0.000000
O	4.268632	2.134320	2.134320
O	6.402952	0.000000	2.134320
Pb	6.402952	2.134320	2.134320
Dy	4.268632	0.000000	4.268632
O	6.402952	2.134320	4.268632
O	4.268632	2.134320	6.402952
O	6.402952	0.000000	6.402952
Pb	6.402952	2.134320	6.402952
Dy	4.268632	4.268632	0.000000
O	6.402952	6.402952	0.000000
O	4.268632	6.402952	2.134320
O	6.402952	4.268632	2.134320
Pb	6.402952	6.402952	2.134320
Dy	4.268632	4.268632	4.268632
O	6.402952	6.402952	4.268632
O	4.268632	6.402952	6.402952
O	6.402952	4.268632	6.402952
Pb	6.402952	6.402952	6.402952
