40

O	0.000000	2.007756	2.007756
O	2.007756	0.000000	2.007756
O	2.007756	2.007756	0.000000
Ru	0.000000	0.000000	0.000000
Ta	2.007756	2.007756	2.007756
O	0.000000	2.007756	6.023269
O	2.007756	0.000000	6.023269
O	2.007756	2.007756	4.015512
Ru	0.000000	0.000000	4.015512
Ta	2.007756	2.007756	6.023269
O	0.000000	6.023269	2.007756
O	2.007756	4.015512	2.007756
O	2.007756	6.023269	0.000000
Ru	0.000000	4.015512	0.000000
Ta	2.007756	6.023269	2.007756
O	0.000000	6.023269	6.023269
O	2.007756	4.015512	6.023269
O	2.007756	6.023269	4.015512
Ru	0.000000	4.015512	4.015512
Ta	2.007756	6.023269	6.023269
O	4.015512	2.007756	2.007756
O	6.023269	0.000000	2.007756
O	6.023269	2.007756	0.000000
Ru	4.015512	0.000000	0.000000
Ta	6.023269	2.007756	2.007756
O	4.015512	2.007756	6.023269
O	6.023269	0.000000	6.023269
O	6.023269	2.007756	4.015512
Ru	4.015512	0.000000	4.015512
Ta	6.023269	2.007756	6.023269
O	4.015512	6.023269	2.007756
O	6.023269	4.015512	2.007756
O	6.023269	6.023269	0.000000
Ru	4.015512	4.015512	0.000000
Ta	6.023269	6.023269	2.007756
O	4.015512	6.023269	6.023269
O	6.023269	4.015512	6.023269
O	6.023269	6.023269	4.015512
Ru	4.015512	4.015512	4.015512
Ta	6.023269	6.023269	6.023269
