40

Ag	2.033630	2.033630	2.033630
Bi	0.000000	0.000000	0.000000
O	2.033630	2.033630	0.000000
O	0.000000	2.033630	2.033630
O	2.033630	0.000000	2.033630
Ag	2.033630	2.033630	6.100888
Bi	0.000000	0.000000	4.067258
O	2.033630	2.033630	4.067258
O	0.000000	2.033630	6.100888
O	2.033630	0.000000	6.100888
Ag	2.033630	6.100888	2.033630
Bi	0.000000	4.067258	0.000000
O	2.033630	6.100888	0.000000
O	0.000000	6.100888	2.033630
O	2.033630	4.067258	2.033630
Ag	2.033630	6.100888	6.100888
Bi	0.000000	4.067258	4.067258
O	2.033630	6.100888	4.067258
O	0.000000	6.100888	6.100888
O	2.033630	4.067258	6.100888
Ag	6.100888	2.033630	2.033630
Bi	4.067258	0.000000	0.000000
O	6.100888	2.033630	0.000000
O	4.067258	2.033630	2.033630
O	6.100888	0.000000	2.033630
Ag	6.100888	2.033630	6.100888
Bi	4.067258	0.000000	4.067258
O	6.100888	2.033630	4.067258
O	4.067258	2.033630	6.100888
O	6.100888	0.000000	6.100888
Ag	6.100888	6.100888	2.033630
Bi	4.067258	4.067258	0.000000
O	6.100888	6.100888	0.000000
O	4.067258	6.100888	2.033630
O	6.100888	4.067258	2.033630
Ag	6.100888	6.100888	6.100888
Bi	4.067258	4.067258	4.067258
O	6.100888	6.100888	4.067258
O	4.067258	6.100888	6.100888
O	6.100888	4.067258	6.100888
