40

Nd	2.260325	2.260325	2.260325
O	2.260325	2.260325	0.000000
O	2.260325	0.000000	2.260325
O	0.000000	2.260325	2.260325
Tl	0.000000	0.000000	0.000000
Nd	2.260325	2.260325	6.780988
O	2.260325	2.260325	4.520663
O	2.260325	0.000000	6.780988
O	0.000000	2.260325	6.780988
Tl	0.000000	0.000000	4.520663
Nd	2.260325	6.780988	2.260325
O	2.260325	6.780988	0.000000
O	2.260325	4.520663	2.260325
O	0.000000	6.780988	2.260325
Tl	0.000000	4.520663	0.000000
Nd	2.260325	6.780988	6.780988
O	2.260325	6.780988	4.520663
O	2.260325	4.520663	6.780988
O	0.000000	6.780988	6.780988
Tl	0.000000	4.520663	4.520663
Nd	6.780988	2.260325	2.260325
O	6.780988	2.260325	0.000000
O	6.780988	0.000000	2.260325
O	4.520663	2.260325	2.260325
Tl	4.520663	0.000000	0.000000
Nd	6.780988	2.260325	6.780988
O	6.780988	2.260325	4.520663
O	6.780988	0.000000	6.780988
O	4.520663	2.260325	6.780988
Tl	4.520663	0.000000	4.520663
Nd	6.780988	6.780988	2.260325
O	6.780988	6.780988	0.000000
O	6.780988	4.520663	2.260325
O	4.520663	6.780988	2.260325
Tl	4.520663	4.520663	0.000000
Nd	6.780988	6.780988	6.780988
O	6.780988	6.780988	4.520663
O	6.780988	4.520663	6.780988
O	4.520663	6.780988	6.780988
Tl	4.520663	4.520663	4.520663
