40

Mg	1.949508	1.949508	1.949508
O	0.000000	1.949508	1.949508
O	1.949508	0.000000	1.949508
O	1.949508	1.949508	0.000000
Sb	0.000000	0.000000	0.000000
Mg	1.949508	1.949508	5.848524
O	0.000000	1.949508	5.848524
O	1.949508	0.000000	5.848524
O	1.949508	1.949508	3.899016
Sb	0.000000	0.000000	3.899016
Mg	1.949508	5.848524	1.949508
O	0.000000	5.848524	1.949508
O	1.949508	3.899016	1.949508
O	1.949508	5.848524	0.000000
Sb	0.000000	3.899016	0.000000
Mg	1.949508	5.848524	5.848524
O	0.000000	5.848524	5.848524
O	1.949508	3.899016	5.848524
O	1.949508	5.848524	3.899016
Sb	0.000000	3.899016	3.899016
Mg	5.848524	1.949508	1.949508
O	3.899016	1.949508	1.949508
O	5.848524	0.000000	1.949508
O	5.848524	1.949508	0.000000
Sb	3.899016	0.000000	0.000000
Mg	5.848524	1.949508	5.848524
O	3.899016	1.949508	5.848524
O	5.848524	0.000000	5.848524
O	5.848524	1.949508	3.899016
Sb	3.899016	0.000000	3.899016
Mg	5.848524	5.848524	1.949508
O	3.899016	5.848524	1.949508
O	5.848524	3.899016	1.949508
O	5.848524	5.848524	0.000000
Sb	3.899016	3.899016	0.000000
Mg	5.848524	5.848524	5.848524
O	3.899016	5.848524	5.848524
O	5.848524	3.899016	5.848524
O	5.848524	5.848524	3.899016
Sb	3.899016	3.899016	3.899016
