40

Au	2.042520	2.042520	2.042520
O	2.042520	2.042520	0.000000
O	0.000000	2.042520	2.042520
O	2.042520	0.000000	2.042520
Sn_d	0.000000	0.000000	0.000000
Au	2.042520	2.042520	6.127557
O	2.042520	2.042520	4.085037
O	0.000000	2.042520	6.127557
O	2.042520	0.000000	6.127557
Sn_d	0.000000	0.000000	4.085037
Au	2.042520	6.127557	2.042520
O	2.042520	6.127557	0.000000
O	0.000000	6.127557	2.042520
O	2.042520	4.085037	2.042520
Sn_d	0.000000	4.085037	0.000000
Au	2.042520	6.127557	6.127557
O	2.042520	6.127557	4.085037
O	0.000000	6.127557	6.127557
O	2.042520	4.085037	6.127557
Sn_d	0.000000	4.085037	4.085037
Au	6.127557	2.042520	2.042520
O	6.127557	2.042520	0.000000
O	4.085037	2.042520	2.042520
O	6.127557	0.000000	2.042520
Sn_d	4.085037	0.000000	0.000000
Au	6.127557	2.042520	6.127557
O	6.127557	2.042520	4.085037
O	4.085037	2.042520	6.127557
O	6.127557	0.000000	6.127557
Sn_d	4.085037	0.000000	4.085037
Au	6.127557	6.127557	2.042520
O	6.127557	6.127557	0.000000
O	4.085037	6.127557	2.042520
O	6.127557	4.085037	2.042520
Sn_d	4.085037	4.085037	0.000000
Au	6.127557	6.127557	6.127557
O	6.127557	6.127557	4.085037
O	4.085037	6.127557	6.127557
O	6.127557	4.085037	6.127557
Sn_d	4.085037	4.085037	4.085037
