40

Au	2.045730	2.045730	2.045730
O	2.045730	0.000000	2.045730
O	0.000000	2.045730	2.045730
O	2.045730	2.045730	0.000000
Tl_d	0.000000	0.000000	0.000000
Au	2.045730	2.045730	6.137185
O	2.045730	0.000000	6.137185
O	0.000000	2.045730	6.137185
O	2.045730	2.045730	4.091455
Tl_d	0.000000	0.000000	4.091455
Au	2.045730	6.137185	2.045730
O	2.045730	4.091455	2.045730
O	0.000000	6.137185	2.045730
O	2.045730	6.137185	0.000000
Tl_d	0.000000	4.091455	0.000000
Au	2.045730	6.137185	6.137185
O	2.045730	4.091455	6.137185
O	0.000000	6.137185	6.137185
O	2.045730	6.137185	4.091455
Tl_d	0.000000	4.091455	4.091455
Au	6.137185	2.045730	2.045730
O	6.137185	0.000000	2.045730
O	4.091455	2.045730	2.045730
O	6.137185	2.045730	0.000000
Tl_d	4.091455	0.000000	0.000000
Au	6.137185	2.045730	6.137185
O	6.137185	0.000000	6.137185
O	4.091455	2.045730	6.137185
O	6.137185	2.045730	4.091455
Tl_d	4.091455	0.000000	4.091455
Au	6.137185	6.137185	2.045730
O	6.137185	4.091455	2.045730
O	4.091455	6.137185	2.045730
O	6.137185	6.137185	0.000000
Tl_d	4.091455	4.091455	0.000000
Au	6.137185	6.137185	6.137185
O	6.137185	4.091455	6.137185
O	4.091455	6.137185	6.137185
O	6.137185	6.137185	4.091455
Tl_d	4.091455	4.091455	4.091455
