40

Cl	0.000000	0.000000	0.000000
O	0.000000	2.118704	2.118704
O	2.118704	0.000000	2.118704
O	2.118704	2.118704	0.000000
Zr	2.118704	2.118704	2.118704
Cl	0.000000	0.000000	4.237408
O	0.000000	2.118704	6.356112
O	2.118704	0.000000	6.356112
O	2.118704	2.118704	4.237408
Zr	2.118704	2.118704	6.356112
Cl	0.000000	4.237408	0.000000
O	0.000000	6.356112	2.118704
O	2.118704	4.237408	2.118704
O	2.118704	6.356112	0.000000
Zr	2.118704	6.356112	2.118704
Cl	0.000000	4.237408	4.237408
O	0.000000	6.356112	6.356112
O	2.118704	4.237408	6.356112
O	2.118704	6.356112	4.237408
Zr	2.118704	6.356112	6.356112
Cl	4.237408	0.000000	0.000000
O	4.237408	2.118704	2.118704
O	6.356112	0.000000	2.118704
O	6.356112	2.118704	0.000000
Zr	6.356112	2.118704	2.118704
Cl	4.237408	0.000000	4.237408
O	4.237408	2.118704	6.356112
O	6.356112	0.000000	6.356112
O	6.356112	2.118704	4.237408
Zr	6.356112	2.118704	6.356112
Cl	4.237408	4.237408	0.000000
O	4.237408	6.356112	2.118704
O	6.356112	4.237408	2.118704
O	6.356112	6.356112	0.000000
Zr	6.356112	6.356112	2.118704
Cl	4.237408	4.237408	4.237408
O	4.237408	6.356112	6.356112
O	6.356112	4.237408	6.356112
O	6.356112	6.356112	4.237408
Zr	6.356112	6.356112	6.356112
