40

In	0.000000	0.000000	0.000000
O	2.101430	2.101430	0.000000
O	2.101430	0.000000	2.101430
O	0.000000	2.101430	2.101430
Te	2.101430	2.101430	2.101430
In	0.000000	0.000000	4.202860
O	2.101430	2.101430	4.202860
O	2.101430	0.000000	6.304290
O	0.000000	2.101430	6.304290
Te	2.101430	2.101430	6.304290
In	0.000000	4.202860	0.000000
O	2.101430	6.304290	0.000000
O	2.101430	4.202860	2.101430
O	0.000000	6.304290	2.101430
Te	2.101430	6.304290	2.101430
In	0.000000	4.202860	4.202860
O	2.101430	6.304290	4.202860
O	2.101430	4.202860	6.304290
O	0.000000	6.304290	6.304290
Te	2.101430	6.304290	6.304290
In	4.202860	0.000000	0.000000
O	6.304290	2.101430	0.000000
O	6.304290	0.000000	2.101430
O	4.202860	2.101430	2.101430
Te	6.304290	2.101430	2.101430
In	4.202860	0.000000	4.202860
O	6.304290	2.101430	4.202860
O	6.304290	0.000000	6.304290
O	4.202860	2.101430	6.304290
Te	6.304290	2.101430	6.304290
In	4.202860	4.202860	0.000000
O	6.304290	6.304290	0.000000
O	6.304290	4.202860	2.101430
O	4.202860	6.304290	2.101430
Te	6.304290	6.304290	2.101430
In	4.202860	4.202860	4.202860
O	6.304290	6.304290	4.202860
O	6.304290	4.202860	6.304290
O	4.202860	6.304290	6.304290
Te	6.304290	6.304290	6.304290
