40

Hg	2.097070	2.097070	2.097070
O	2.097070	2.097070	0.000000
O	0.000000	2.097070	2.097070
O	2.097070	0.000000	2.097070
Sr_sv	0.000000	0.000000	0.000000
Hg	2.097070	2.097070	6.291205
O	2.097070	2.097070	4.194135
O	0.000000	2.097070	6.291205
O	2.097070	0.000000	6.291205
Sr_sv	0.000000	0.000000	4.194135
Hg	2.097070	6.291205	2.097070
O	2.097070	6.291205	0.000000
O	0.000000	6.291205	2.097070
O	2.097070	4.194135	2.097070
Sr_sv	0.000000	4.194135	0.000000
Hg	2.097070	6.291205	6.291205
O	2.097070	6.291205	4.194135
O	0.000000	6.291205	6.291205
O	2.097070	4.194135	6.291205
Sr_sv	0.000000	4.194135	4.194135
Hg	6.291205	2.097070	2.097070
O	6.291205	2.097070	0.000000
O	4.194135	2.097070	2.097070
O	6.291205	0.000000	2.097070
Sr_sv	4.194135	0.000000	0.000000
Hg	6.291205	2.097070	6.291205
O	6.291205	2.097070	4.194135
O	4.194135	2.097070	6.291205
O	6.291205	0.000000	6.291205
Sr_sv	4.194135	0.000000	4.194135
Hg	6.291205	6.291205	2.097070
O	6.291205	6.291205	0.000000
O	4.194135	6.291205	2.097070
O	6.291205	4.194135	2.097070
Sr_sv	4.194135	4.194135	0.000000
Hg	6.291205	6.291205	6.291205
O	6.291205	6.291205	4.194135
O	4.194135	6.291205	6.291205
O	6.291205	4.194135	6.291205
Sr_sv	4.194135	4.194135	4.194135
