112

Cd	0.000000	0.000000	0.000000
Cd	2.697977	-2.698236	-2.698236
O	3.902158	-1.493439	-1.493439
O	-1.493796	1.493439	-3.903034
O	1.493796	-1.493439	-3.903034
O	1.204181	1.204797	-1.204797
O	6.889750	1.493439	-1.493439
O	1.204181	4.191675	-4.191675
O	4.191773	4.191675	-1.204797
O	4.191773	1.204797	-4.191675
Rb	-1.348989	-1.349118	-4.047354
Rb	4.046966	1.349118	-1.349118
Rb	6.744943	-1.349118	-1.349118
Rb	1.348989	1.349118	-4.047354
Cd	5.395954	5.396473	0.000000
Cd	8.093931	2.698236	-2.698236
O	9.298112	3.903034	-1.493439
O	3.902158	6.889912	-3.903034
O	6.889750	3.903034	-3.903034
O	6.600135	6.601270	-1.204797
O	12.285704	6.889912	-1.493439
O	6.600135	9.588148	-4.191675
O	9.587727	9.588148	-1.204797
O	9.587727	6.601270	-4.191675
Rb	4.046966	4.047354	-4.047354
Rb	9.442920	6.745591	-1.349118
Rb	12.140897	4.047354	-1.349118
Rb	6.744943	6.745591	-4.047354
Cd	-5.395954	0.000000	-5.396473
Cd	-2.697977	-2.698236	-8.094709
O	-1.493796	-1.493439	-6.889912
O	-6.889750	1.493439	-9.299506
O	-3.902158	-1.493439	-9.299506
O	-4.191773	1.204797	-6.601270
O	1.493796	1.493439	-6.889912
O	-4.191773	4.191675	-9.588148
O	-1.204181	4.191675	-6.601270
O	-1.204181	1.204797	-9.588148
Rb	-6.744943	-1.349118	-9.443827
Rb	-1.348989	1.349118	-6.745591
Rb	1.348989	-1.349118	-6.745591
Rb	-4.046966	1.349118	-9.443827
Cd	0.000000	5.396473	-5.396473
Cd	2.697977	2.698236	-8.094709
O	3.902158	3.903034	-6.889912
O	-1.493796	6.889912	-9.299506
O	1.493796	3.903034	-9.299506
O	1.204181	6.601270	-6.601270
O	6.889750	6.889912	-6.889912
O	1.204181	9.588148	-9.588148
O	4.191773	9.588148	-6.601270
O	4.191773	6.601270	-9.588148
Rb	-1.348989	4.047354	-9.443827
Rb	4.046966	6.745591	-6.745591
Rb	6.744943	4.047354	-6.745591
Rb	1.348989	6.745591	-9.443827
Cd	5.395954	-5.396473	0.000000
Cd	8.093931	-8.094709	-2.698236
O	9.298112	-6.889912	-1.493439
O	3.902158	-3.903034	-3.903034
O	6.889750	-6.889912	-3.903034
O	6.600135	-4.191675	-1.204797
O	12.285704	-3.903034	-1.493439
O	6.600135	-1.204797	-4.191675
O	9.587727	-1.204797	-1.204797
O	9.587727	-4.191675	-4.191675
Rb	4.046966	-6.745591	-4.047354
Rb	9.442920	-4.047354	-1.349118
Rb	12.140897	-6.745591	-1.349118
Rb	6.744943	-4.047354	-4.047354
Cd	10.791908	0.000000	0.000000
Cd	13.489885	-2.698236	-2.698236
O	14.694066	-1.493439	-1.493439
O	9.298112	1.493439	-3.903034
O	12.285704	-1.493439	-3.903034
O	11.996089	1.204797	-1.204797
O	17.681658	1.493439	-1.493439
O	11.996089	4.191675	-4.191675
O	14.983681	4.191675	-1.204797
O	14.983681	1.204797	-4.191675
Rb	9.442920	-1.349118	-4.047354
Rb	14.838874	1.349118	-1.349118
Rb	17.536851	-1.349118	-1.349118
Rb	12.140897	1.349118	-4.047354
Cd	0.000000	-5.396473	-5.396473
Cd	2.697977	-8.094709	-8.094709
O	3.902158	-6.889912	-6.889912
O	-1.493796	-3.903034	-9.299506
O	1.493796	-6.889912	-9.299506
O	1.204181	-4.191675	-6.601270
O	6.889750	-3.903034	-6.889912
O	1.204181	-1.204797	-9.588148
O	4.191773	-1.204797	-6.601270
O	4.191773	-4.191675	-9.588148
Rb	-1.348989	-6.745591	-9.443827
Rb	4.046966	-4.047354	-6.745591
Rb	6.744943	-6.745591	-6.745591
Rb	1.348989	-4.047354	-9.443827
Cd	5.395954	0.000000	-5.396473
Cd	8.093931	-2.698236	-8.094709
O	9.298112	-1.493439	-6.889912
O	3.902158	1.493439	-9.299506
O	6.889750	-1.493439	-9.299506
O	6.600135	1.204797	-6.601270
O	12.285704	1.493439	-6.889912
O	6.600135	4.191675	-9.588148
O	9.587727	4.191675	-6.601270
O	9.587727	1.204797	-9.588148
Rb	4.046966	-1.349118	-9.443827
Rb	9.442920	1.349118	-6.745591
Rb	12.140897	-1.349118	-6.745591
Rb	6.744943	1.349118	-9.443827
