112

Cd	0.000000	0.000000	0.000000
Cd	2.619416	-2.619699	-2.619699
O	1.188708	1.189285	-1.189285
O	-1.430717	1.430414	-3.808964
O	3.808124	-1.430414	-1.430414
O	1.430717	-1.430414	-3.808964
O	1.188708	4.050113	-4.050113
O	4.050123	4.050113	-1.189285
O	4.050123	1.189285	-4.050113
O	6.669538	1.430414	-1.430414
Rb	-1.309708	-1.309844	-3.929533
Rb	6.548529	-1.309844	-1.309844
Rb	1.309708	1.309844	-3.929533
Rb	3.929123	1.309844	-1.309844
Cd	5.238828	5.239384	0.000000
Cd	7.858244	2.619686	-2.619699
O	6.427537	6.428669	-1.189285
O	3.808111	6.669798	-3.808964
O	9.046952	3.808971	-1.430414
O	6.669545	3.808971	-3.808964
O	6.427537	9.289497	-4.050113
O	9.288951	9.289497	-1.189285
O	9.288951	6.428669	-4.050113
O	11.908366	6.669798	-1.430414
Rb	3.929120	3.929540	-3.929533
Rb	11.787357	3.929540	-1.309844
Rb	6.548536	6.549229	-3.929533
Rb	9.167952	6.549229	-1.309844
Cd	-5.238828	0.000000	-5.239384
Cd	-2.619413	-2.619699	-7.859083
O	-4.050120	1.189285	-6.428669
O	-6.669545	1.430414	-9.048348
O	-1.430704	-1.430414	-6.669798
O	-3.808111	-1.430414	-9.048348
O	-4.050120	4.050113	-9.289497
O	-1.188705	4.050113	-6.428669
O	-1.188705	1.189285	-9.289497
O	1.430710	1.430414	-6.669798
Rb	-6.548536	-1.309844	-9.168918
Rb	1.309701	-1.309844	-6.549229
Rb	-3.929120	1.309844	-9.168918
Rb	-1.309705	1.309844	-6.549229
Cd	0.000000	5.239384	-5.239384
Cd	2.619416	2.619686	-7.859083
O	1.188708	6.428669	-6.428669
O	-1.430717	6.669798	-9.048348
O	3.808124	3.808971	-6.669798
O	1.430717	3.808971	-9.048348
O	1.188708	9.289497	-9.289497
O	4.050123	9.289497	-6.428669
O	4.050123	6.428669	-9.289497
O	6.669538	6.669798	-6.669798
Rb	-1.309708	3.929540	-9.168918
Rb	6.548529	3.929540	-6.549229
Rb	1.309708	6.549229	-9.168918
Rb	3.929123	6.549229	-6.549229
Cd	5.238828	-5.239384	0.000000
Cd	7.858244	-7.859083	-2.619699
O	6.427537	-4.050100	-1.189285
O	3.808111	-3.808971	-3.808964
O	9.046952	-6.669798	-1.430414
O	6.669545	-6.669798	-3.808964
O	6.427537	-1.189272	-4.050113
O	9.288951	-1.189272	-1.189285
O	9.288951	-4.050100	-4.050113
O	11.908366	-3.808971	-1.430414
Rb	3.929120	-6.549229	-3.929533
Rb	11.787357	-6.549229	-1.309844
Rb	6.548536	-3.929540	-3.929533
Rb	9.167952	-3.929540	-1.309844
Cd	10.477656	0.000000	0.000000
Cd	13.097072	-2.619699	-2.619699
O	11.666365	1.189285	-1.189285
O	9.046939	1.430414	-3.808964
O	14.285780	-1.430414	-1.430414
O	11.908373	-1.430414	-3.808964
O	11.666365	4.050113	-4.050113
O	14.527779	4.050113	-1.189285
O	14.527779	1.189285	-4.050113
O	17.147195	1.430414	-1.430414
Rb	9.167949	-1.309844	-3.929533
Rb	17.026185	-1.309844	-1.309844
Rb	11.787364	1.309844	-3.929533
Rb	14.406780	1.309844	-1.309844
Cd	0.000000	-5.239384	-5.239384
Cd	2.619416	-7.859083	-7.859083
O	1.188708	-4.050100	-6.428669
O	-1.430717	-3.808971	-9.048348
O	3.808124	-6.669798	-6.669798
O	1.430717	-6.669798	-9.048348
O	1.188708	-1.189272	-9.289497
O	4.050123	-1.189272	-6.428669
O	4.050123	-4.050100	-9.289497
O	6.669538	-3.808971	-6.669798
Rb	-1.309708	-6.549229	-9.168918
Rb	6.548529	-6.549229	-6.549229
Rb	1.309708	-3.929540	-9.168918
Rb	3.929123	-3.929540	-6.549229
Cd	5.238828	0.000000	-5.239384
Cd	7.858244	-2.619699	-7.859083
O	6.427537	1.189285	-6.428669
O	3.808111	1.430414	-9.048348
O	9.046952	-1.430414	-6.669798
O	6.669545	-1.430414	-9.048348
O	6.427537	4.050113	-9.289497
O	9.288951	4.050113	-6.428669
O	9.288951	1.189285	-9.289497
O	11.908366	1.430414	-6.669798
Rb	3.929120	-1.309844	-9.168918
Rb	11.787357	-1.309844	-6.549229
Rb	6.548536	1.309844	-9.168918
Rb	9.167952	1.309844	-6.549229
