40

Li	1.995840	1.995840	1.995840
O	1.995840	1.995840	0.000000
O	1.995840	0.000000	1.995840
O	0.000000	1.995840	1.995840
Rb	0.000000	0.000000	0.000000
Li	1.995840	1.995840	5.987520
O	1.995840	1.995840	3.991680
O	1.995840	0.000000	5.987520
O	0.000000	1.995840	5.987520
Rb	0.000000	0.000000	3.991680
Li	1.995840	5.987520	1.995840
O	1.995840	5.987520	0.000000
O	1.995840	3.991680	1.995840
O	0.000000	5.987520	1.995840
Rb	0.000000	3.991680	0.000000
Li	1.995840	5.987520	5.987520
O	1.995840	5.987520	3.991680
O	1.995840	3.991680	5.987520
O	0.000000	5.987520	5.987520
Rb	0.000000	3.991680	3.991680
Li	5.987520	1.995840	1.995840
O	5.987520	1.995840	0.000000
O	5.987520	0.000000	1.995840
O	3.991680	1.995840	1.995840
Rb	3.991680	0.000000	0.000000
Li	5.987520	1.995840	5.987520
O	5.987520	1.995840	3.991680
O	5.987520	0.000000	5.987520
O	3.991680	1.995840	5.987520
Rb	3.991680	0.000000	3.991680
Li	5.987520	5.987520	1.995840
O	5.987520	5.987520	0.000000
O	5.987520	3.991680	1.995840
O	3.991680	5.987520	1.995840
Rb	3.991680	3.991680	0.000000
Li	5.987520	5.987520	5.987520
O	5.987520	5.987520	3.991680
O	5.987520	3.991680	5.987520
O	3.991680	5.987520	5.987520
Rb	3.991680	3.991680	3.991680
