40

F	1.896701	1.896701	1.896701
O	0.000000	1.896701	1.896701
O	1.896701	0.000000	1.896701
O	1.896701	1.896701	0.000000
Rh	0.000000	0.000000	0.000000
F	1.896701	1.896701	5.690102
O	0.000000	1.896701	5.690102
O	1.896701	0.000000	5.690102
O	1.896701	1.896701	3.793402
Rh	0.000000	0.000000	3.793402
F	1.896701	5.690102	1.896701
O	0.000000	5.690102	1.896701
O	1.896701	3.793402	1.896701
O	1.896701	5.690102	0.000000
Rh	0.000000	3.793402	0.000000
F	1.896701	5.690102	5.690102
O	0.000000	5.690102	5.690102
O	1.896701	3.793402	5.690102
O	1.896701	5.690102	3.793402
Rh	0.000000	3.793402	3.793402
F	5.690102	1.896701	1.896701
O	3.793402	1.896701	1.896701
O	5.690102	0.000000	1.896701
O	5.690102	1.896701	0.000000
Rh	3.793402	0.000000	0.000000
F	5.690102	1.896701	5.690102
O	3.793402	1.896701	5.690102
O	5.690102	0.000000	5.690102
O	5.690102	1.896701	3.793402
Rh	3.793402	0.000000	3.793402
F	5.690102	5.690102	1.896701
O	3.793402	5.690102	1.896701
O	5.690102	3.793402	1.896701
O	5.690102	5.690102	0.000000
Rh	3.793402	3.793402	0.000000
F	5.690102	5.690102	5.690102
O	3.793402	5.690102	5.690102
O	5.690102	3.793402	5.690102
O	5.690102	5.690102	3.793402
Rh	3.793402	3.793402	3.793402
