40

F	1.881705	1.881705	1.881705
O	0.000000	1.881705	1.881705
O	1.881705	0.000000	1.881705
O	1.881705	1.881705	0.000000
Rh	0.000000	0.000000	0.000000
F	1.881705	1.881705	5.645116
O	0.000000	1.881705	5.645116
O	1.881705	0.000000	5.645116
O	1.881705	1.881705	3.763411
Rh	0.000000	0.000000	3.763411
F	1.881705	5.645116	1.881705
O	0.000000	5.645116	1.881705
O	1.881705	3.763411	1.881705
O	1.881705	5.645116	0.000000
Rh	0.000000	3.763411	0.000000
F	1.881705	5.645116	5.645116
O	0.000000	5.645116	5.645116
O	1.881705	3.763411	5.645116
O	1.881705	5.645116	3.763411
Rh	0.000000	3.763411	3.763411
F	5.645116	1.881705	1.881705
O	3.763411	1.881705	1.881705
O	5.645116	0.000000	1.881705
O	5.645116	1.881705	0.000000
Rh	3.763411	0.000000	0.000000
F	5.645116	1.881705	5.645116
O	3.763411	1.881705	5.645116
O	5.645116	0.000000	5.645116
O	5.645116	1.881705	3.763411
Rh	3.763411	0.000000	3.763411
F	5.645116	5.645116	1.881705
O	3.763411	5.645116	1.881705
O	5.645116	3.763411	1.881705
O	5.645116	5.645116	0.000000
Rh	3.763411	3.763411	0.000000
F	5.645116	5.645116	5.645116
O	3.763411	5.645116	5.645116
O	5.645116	3.763411	5.645116
O	5.645116	5.645116	3.763411
Rh	3.763411	3.763411	3.763411
