112

Cs	0.000000	0.000000	0.000000
Cs	2.570603	-2.571115	-2.571115
O	-1.007604	1.007469	-4.134762
O	4.133613	-1.007469	-1.007469
O	1.007604	-1.007469	-4.134762
O	1.563000	1.563647	-1.563647
O	6.148820	1.007469	-1.007469
O	1.563000	3.578594	-3.578594
O	3.578207	3.578594	-1.563647
O	3.578207	1.563647	-3.578594
Pb	-1.285302	-1.285563	-3.856678
Pb	6.426518	-1.285563	-1.285563
Pb	1.285302	1.285563	-3.856678
Pb	3.855915	1.285563	-1.285563
Cs	5.141215	5.142239	0.000000
Cs	7.711818	2.571124	-2.571115
O	4.133612	6.149708	-4.134762
O	9.274828	4.134770	-1.007469
O	6.148819	4.134770	-4.134762
O	6.704215	6.705886	-1.563647
O	11.290035	6.149708	-1.007469
O	6.704215	8.720833	-3.578594
O	8.719422	8.720833	-1.563647
O	8.719422	6.705886	-3.578594
Pb	3.855914	3.856676	-3.856678
Pb	11.567733	3.856676	-1.285563
Pb	6.426517	6.427802	-3.856678
Pb	8.997130	6.427802	-1.285563
Cs	-5.141215	0.000000	-5.142239
Cs	-2.570612	-2.571115	-7.713354
O	-6.148819	1.007469	-9.277001
O	-1.007603	-1.007469	-6.149708
O	-4.133612	-1.007469	-9.277001
O	-3.578216	1.563647	-6.705886
O	1.007605	1.007469	-6.149708
O	-3.578216	3.578594	-8.720833
O	-1.563009	3.578594	-6.705886
O	-1.563009	1.563647	-8.720833
Pb	-6.426517	-1.285563	-8.998917
Pb	1.285303	-1.285563	-6.427802
Pb	-3.855914	1.285563	-8.998917
Pb	-1.285301	1.285563	-6.427802
Cs	0.000000	5.142239	-5.142239
Cs	2.570603	2.571124	-7.713354
O	-1.007604	6.149708	-9.277001
O	4.133613	4.134770	-6.149708
O	1.007604	4.134770	-9.277001
O	1.563000	6.705886	-6.705886
O	6.148820	6.149708	-6.149708
O	1.563000	8.720833	-8.720833
O	3.578207	8.720833	-6.705886
O	3.578207	6.705886	-8.720833
Pb	-1.285302	3.856676	-8.998917
Pb	6.426518	3.856676	-6.427802
Pb	1.285302	6.427802	-8.998917
Pb	3.855915	6.427802	-6.427802
Cs	5.141215	-5.142239	0.000000
Cs	7.711818	-7.713354	-2.571115
O	4.133612	-4.134770	-4.134762
O	9.274828	-6.149708	-1.007469
O	6.148819	-6.149708	-4.134762
O	6.704215	-3.578592	-1.563647
O	11.290035	-4.134770	-1.007469
O	6.704215	-1.563645	-3.578594
O	8.719422	-1.563645	-1.563647
O	8.719422	-3.578592	-3.578594
Pb	3.855914	-6.427802	-3.856678
Pb	11.567733	-6.427802	-1.285563
Pb	6.426517	-3.856676	-3.856678
Pb	8.997130	-3.856676	-1.285563
Cs	10.282430	0.000000	0.000000
Cs	12.853034	-2.571115	-2.571115
O	9.274827	1.007469	-4.134762
O	14.416043	-1.007469	-1.007469
O	11.290034	-1.007469	-4.134762
O	11.845430	1.563647	-1.563647
O	16.431250	1.007469	-1.007469
O	11.845430	3.578594	-3.578594
O	13.860637	3.578594	-1.563647
O	13.860637	1.563647	-3.578594
Pb	8.997129	-1.285563	-3.856678
Pb	16.708948	-1.285563	-1.285563
Pb	11.567732	1.285563	-3.856678
Pb	14.138345	1.285563	-1.285563
Cs	0.000000	-5.142239	-5.142239
Cs	2.570603	-7.713354	-7.713354
O	-1.007604	-4.134770	-9.277001
O	4.133613	-6.149708	-6.149708
O	1.007604	-6.149708	-9.277001
O	1.563000	-3.578592	-6.705886
O	6.148820	-4.134770	-6.149708
O	1.563000	-1.563645	-8.720833
O	3.578207	-1.563645	-6.705886
O	3.578207	-3.578592	-8.720833
Pb	-1.285302	-6.427802	-8.998917
Pb	6.426518	-6.427802	-6.427802
Pb	1.285302	-3.856676	-8.998917
Pb	3.855915	-3.856676	-6.427802
Cs	5.141215	0.000000	-5.142239
Cs	7.711818	-2.571115	-7.713354
O	4.133612	1.007469	-9.277001
O	9.274828	-1.007469	-6.149708
O	6.148819	-1.007469	-9.277001
O	6.704215	1.563647	-6.705886
O	11.290035	1.007469	-6.149708
O	6.704215	3.578594	-8.720833
O	8.719422	3.578594	-6.705886
O	8.719422	1.563647	-8.720833
Pb	3.855914	-1.285563	-8.998917
Pb	11.567733	-1.285563	-6.427802
Pb	6.426517	1.285563	-8.998917
Pb	8.997130	1.285563	-6.427802
