40

O	1.995860	1.995860	0.000000
O	0.000000	1.995860	1.995860
O	1.995860	0.000000	1.995860
Sn_d	1.995860	1.995860	1.995860
Zn	0.000000	0.000000	0.000000
O	1.995860	1.995860	3.991712
O	0.000000	1.995860	5.987572
O	1.995860	0.000000	5.987572
Sn_d	1.995860	1.995860	5.987572
Zn	0.000000	0.000000	3.991712
O	1.995860	5.987572	0.000000
O	0.000000	5.987572	1.995860
O	1.995860	3.991712	1.995860
Sn_d	1.995860	5.987572	1.995860
Zn	0.000000	3.991712	0.000000
O	1.995860	5.987572	3.991712
O	0.000000	5.987572	5.987572
O	1.995860	3.991712	5.987572
Sn_d	1.995860	5.987572	5.987572
Zn	0.000000	3.991712	3.991712
O	5.987572	1.995860	0.000000
O	3.991712	1.995860	1.995860
O	5.987572	0.000000	1.995860
Sn_d	5.987572	1.995860	1.995860
Zn	3.991712	0.000000	0.000000
O	5.987572	1.995860	3.991712
O	3.991712	1.995860	5.987572
O	5.987572	0.000000	5.987572
Sn_d	5.987572	1.995860	5.987572
Zn	3.991712	0.000000	3.991712
O	5.987572	5.987572	0.000000
O	3.991712	5.987572	1.995860
O	5.987572	3.991712	1.995860
Sn_d	5.987572	5.987572	1.995860
Zn	3.991712	3.991712	0.000000
O	5.987572	5.987572	3.991712
O	3.991712	5.987572	5.987572
O	5.987572	3.991712	5.987572
Sn_d	5.987572	5.987572	5.987572
Zn	3.991712	3.991712	3.991712
