40

Fe	1.920758	1.920758	1.920758
O	1.920758	1.920758	0.000000
O	0.000000	1.920758	1.920758
O	1.920758	0.000000	1.920758
Y	0.000000	0.000000	0.000000
Fe	1.920758	1.920758	5.762274
O	1.920758	1.920758	3.841516
O	0.000000	1.920758	5.762274
O	1.920758	0.000000	5.762274
Y	0.000000	0.000000	3.841516
Fe	1.920758	5.762274	1.920758
O	1.920758	5.762274	0.000000
O	0.000000	5.762274	1.920758
O	1.920758	3.841516	1.920758
Y	0.000000	3.841516	0.000000
Fe	1.920758	5.762274	5.762274
O	1.920758	5.762274	3.841516
O	0.000000	5.762274	5.762274
O	1.920758	3.841516	5.762274
Y	0.000000	3.841516	3.841516
Fe	5.762274	1.920758	1.920758
O	5.762274	1.920758	0.000000
O	3.841516	1.920758	1.920758
O	5.762274	0.000000	1.920758
Y	3.841516	0.000000	0.000000
Fe	5.762274	1.920758	5.762274
O	5.762274	1.920758	3.841516
O	3.841516	1.920758	5.762274
O	5.762274	0.000000	5.762274
Y	3.841516	0.000000	3.841516
Fe	5.762274	5.762274	1.920758
O	5.762274	5.762274	0.000000
O	3.841516	5.762274	1.920758
O	5.762274	3.841516	1.920758
Y	3.841516	3.841516	0.000000
Fe	5.762274	5.762274	5.762274
O	5.762274	5.762274	3.841516
O	3.841516	5.762274	5.762274
O	5.762274	3.841516	5.762274
Y	3.841516	3.841516	3.841516
