112

Co	0.000000	0.000000	0.000000
Co	2.012839	-2.013603	-2.013603
Li	-1.006420	-1.006802	-3.020405
Li	5.032089	-1.006802	-1.006802
Li	1.006420	1.006802	-3.020405
Li	3.019259	1.006802	-1.006802
O	0.959973	0.960790	-0.960790
O	-1.052866	1.052813	-2.974394
O	2.972813	-1.052813	-1.052813
O	1.052866	-1.052813	-2.974394
O	0.959973	3.066416	-3.066416
O	3.065705	0.960790	-3.066416
O	3.065705	3.066416	-0.960790
O	5.078535	1.052813	-1.052813
Co	4.025673	4.027205	0.000000
Co	6.038512	2.013602	-2.013603
Li	3.019253	3.020403	-3.020405
Li	9.057761	3.020403	-1.006802
Li	5.032092	5.034006	-3.020405
Li	7.044932	5.034007	-1.006802
O	4.985646	4.987995	-0.960790
O	2.972807	5.080018	-2.974394
O	6.998486	2.974392	-1.052813
O	5.078539	2.974392	-2.974394
O	4.985646	7.093621	-3.066416
O	7.091378	4.987995	-3.066416
O	7.091378	7.093621	-0.960790
O	9.104208	5.080018	-1.052813
Co	-4.025673	0.000000	-4.027205
Co	-2.012833	-2.013603	-6.040808
Li	-5.032092	-1.006802	-7.047610
Li	1.006416	-1.006802	-5.034007
Li	-3.019253	1.006802	-7.047610
Li	-1.006414	1.006802	-5.034007
O	-3.065699	0.960790	-4.987995
O	-5.078539	1.052813	-7.001599
O	-1.052860	-1.052813	-5.080018
O	-2.972807	-1.052813	-7.001599
O	-3.065699	3.066416	-7.093621
O	-0.959967	0.960790	-7.093621
O	-0.959967	3.066416	-4.987995
O	1.052862	1.052813	-5.080018
Co	0.000000	4.027205	-4.027205
Co	2.012839	2.013602	-6.040808
Li	-1.006420	3.020403	-7.047610
Li	5.032089	3.020403	-5.034007
Li	1.006420	5.034006	-7.047610
Li	3.019259	5.034007	-5.034007
O	0.959973	4.987995	-4.987995
O	-1.052866	5.080018	-7.001599
O	2.972813	2.974392	-5.080018
O	1.052866	2.974392	-7.001599
O	0.959973	7.093621	-7.093621
O	3.065705	4.987995	-7.093621
O	3.065705	7.093621	-4.987995
O	5.078535	5.080018	-5.080018
Co	4.025673	-4.027205	0.000000
Co	6.038512	-6.040808	-2.013603
Li	3.019253	-5.034006	-3.020405
Li	9.057761	-5.034006	-1.006802
Li	5.032092	-3.020403	-3.020405
Li	7.044932	-3.020403	-1.006802
O	4.985646	-3.066414	-0.960790
O	2.972807	-2.974392	-2.974394
O	6.998486	-5.080018	-1.052813
O	5.078539	-5.080018	-2.974394
O	4.985646	-0.960789	-3.066416
O	7.091378	-3.066414	-3.066416
O	7.091378	-0.960789	-0.960790
O	9.104208	-2.974392	-1.052813
Co	8.051345	0.000000	0.000000
Co	10.064185	-2.013603	-2.013603
Li	7.044926	-1.006802	-3.020405
Li	13.083434	-1.006802	-1.006802
Li	9.057765	1.006802	-3.020405
Li	11.070605	1.006802	-1.006802
O	9.011319	0.960790	-0.960790
O	6.998479	1.052813	-2.974394
O	11.024158	-1.052813	-1.052813
O	9.104211	-1.052813	-2.974394
O	9.011319	3.066416	-3.066416
O	11.117051	0.960790	-3.066416
O	11.117051	3.066416	-0.960790
O	13.129880	1.052813	-1.052813
Co	0.000000	-4.027205	-4.027205
Co	2.012839	-6.040808	-6.040808
Li	-1.006420	-5.034006	-7.047610
Li	5.032089	-5.034006	-5.034007
Li	1.006420	-3.020403	-7.047610
Li	3.019259	-3.020403	-5.034007
O	0.959973	-3.066414	-4.987995
O	-1.052866	-2.974392	-7.001599
O	2.972813	-5.080018	-5.080018
O	1.052866	-5.080018	-7.001599
O	0.959973	-0.960789	-7.093621
O	3.065705	-3.066414	-7.093621
O	3.065705	-0.960789	-4.987995
O	5.078535	-2.974392	-5.080018
Co	4.025673	0.000000	-4.027205
Co	6.038512	-2.013603	-6.040808
Li	3.019253	-1.006802	-7.047610
Li	9.057761	-1.006802	-5.034007
Li	5.032092	1.006802	-7.047610
Li	7.044932	1.006802	-5.034007
O	4.985646	0.960790	-4.987995
O	2.972807	1.052813	-7.001599
O	6.998486	-1.052813	-5.080018
O	5.078539	-1.052813	-7.001599
O	4.985646	3.066416	-7.093621
O	7.091378	0.960790	-7.093621
O	7.091378	3.066416	-4.987995
O	9.104208	1.052813	-5.080018
