40

Al	0.000000	0.000000	0.000000
K	2.075809	2.075809	2.075809
O	2.075809	2.075809	0.000000
O	2.075809	0.000000	2.075809
O	0.000000	2.075809	2.075809
Al	0.000000	0.000000	4.151622
K	2.075809	2.075809	6.227430
O	2.075809	2.075809	4.151622
O	2.075809	0.000000	6.227430
O	0.000000	2.075809	6.227430
Al	0.000000	4.151622	0.000000
K	2.075809	6.227430	2.075809
O	2.075809	6.227430	0.000000
O	2.075809	4.151622	2.075809
O	0.000000	6.227430	2.075809
Al	0.000000	4.151622	4.151622
K	2.075809	6.227430	6.227430
O	2.075809	6.227430	4.151622
O	2.075809	4.151622	6.227430
O	0.000000	6.227430	6.227430
Al	4.151622	0.000000	0.000000
K	6.227430	2.075809	2.075809
O	6.227430	2.075809	0.000000
O	6.227430	0.000000	2.075809
O	4.151622	2.075809	2.075809
Al	4.151622	0.000000	4.151622
K	6.227430	2.075809	6.227430
O	6.227430	2.075809	4.151622
O	6.227430	0.000000	6.227430
O	4.151622	2.075809	6.227430
Al	4.151622	4.151622	0.000000
K	6.227430	6.227430	2.075809
O	6.227430	6.227430	0.000000
O	6.227430	4.151622	2.075809
O	4.151622	6.227430	2.075809
Al	4.151622	4.151622	4.151622
K	6.227430	6.227430	6.227430
O	6.227430	6.227430	4.151622
O	6.227430	4.151622	6.227430
O	4.151622	6.227430	6.227430
