112

Ac	0.000000	0.000000	0.000000
Ac	2.554517	-2.554942	-2.554942
O	3.954015	-1.154328	-1.154328
O	-1.155019	1.154328	-3.955557
O	1.155019	-1.154328	-3.955557
O	1.399498	1.400614	-1.400614
O	6.264052	1.154328	-1.154328
O	1.399498	3.709270	-3.709270
O	3.709535	3.709270	-1.400614
O	3.709535	1.400614	-3.709270
U	-1.277258	-1.277471	-3.832414
U	3.831775	1.277471	-1.277471
U	6.386292	-1.277471	-1.277471
U	1.277258	1.277471	-3.832414
Ac	5.109034	5.109885	0.000000
Ac	7.663551	2.554942	-2.554942
O	9.063049	3.955557	-1.154328
O	3.954015	6.264213	-3.955557
O	6.264052	3.955557	-3.955557
O	6.508532	6.510499	-1.400614
O	11.373086	6.264213	-1.154328
O	6.508532	8.819155	-3.709270
O	8.818569	8.819155	-1.400614
O	8.818569	6.510499	-3.709270
U	3.831775	3.832414	-3.832414
U	8.940809	6.387356	-1.277471
U	11.495326	3.832414	-1.277471
U	6.386292	6.387356	-3.832414
Ac	-5.109034	0.000000	-5.109885
Ac	-2.554517	-2.554942	-7.664827
O	-1.155019	-1.154328	-6.264213
O	-6.264052	1.154328	-9.065442
O	-3.954015	-1.154328	-9.065442
O	-3.709535	1.400614	-6.510499
O	1.155019	1.154328	-6.264213
O	-3.709535	3.709270	-8.819155
O	-1.399498	3.709270	-6.510499
O	-1.399498	1.400614	-8.819155
U	-6.386292	-1.277471	-8.942299
U	-1.277258	1.277471	-6.387356
U	1.277258	-1.277471	-6.387356
U	-3.831775	1.277471	-8.942299
Ac	0.000000	5.109885	-5.109885
Ac	2.554517	2.554942	-7.664827
O	3.954015	3.955557	-6.264213
O	-1.155019	6.264213	-9.065442
O	1.155019	3.955557	-9.065442
O	1.399498	6.510499	-6.510499
O	6.264052	6.264213	-6.264213
O	1.399498	8.819155	-8.819155
O	3.709535	8.819155	-6.510499
O	3.709535	6.510499	-8.819155
U	-1.277258	3.832414	-8.942299
U	3.831775	6.387356	-6.387356
U	6.386292	3.832414	-6.387356
U	1.277258	6.387356	-8.942299
Ac	5.109034	-5.109885	0.000000
Ac	7.663551	-7.664827	-2.554942
O	9.063049	-6.264213	-1.154328
O	3.954015	-3.955557	-3.955557
O	6.264052	-6.264213	-3.955557
O	6.508532	-3.709270	-1.400614
O	11.373086	-3.955557	-1.154328
O	6.508532	-1.400614	-3.709270
O	8.818569	-1.400614	-1.400614
O	8.818569	-3.709270	-3.709270
U	3.831775	-6.387356	-3.832414
U	8.940809	-3.832414	-1.277471
U	11.495326	-6.387356	-1.277471
U	6.386292	-3.832414	-3.832414
Ac	10.218068	0.000000	0.000000
Ac	12.772585	-2.554942	-2.554942
O	14.172083	-1.154328	-1.154328
O	9.063049	1.154328	-3.955557
O	11.373086	-1.154328	-3.955557
O	11.617566	1.400614	-1.400614
O	16.482120	1.154328	-1.154328
O	11.617566	3.709270	-3.709270
O	13.927603	3.709270	-1.400614
O	13.927603	1.400614	-3.709270
U	8.940809	-1.277471	-3.832414
U	14.049843	1.277471	-1.277471
U	16.604360	-1.277471	-1.277471
U	11.495326	1.277471	-3.832414
Ac	0.000000	-5.109885	-5.109885
Ac	2.554517	-7.664827	-7.664827
O	3.954015	-6.264213	-6.264213
O	-1.155019	-3.955557	-9.065442
O	1.155019	-6.264213	-9.065442
O	1.399498	-3.709270	-6.510499
O	6.264052	-3.955557	-6.264213
O	1.399498	-1.400614	-8.819155
O	3.709535	-1.400614	-6.510499
O	3.709535	-3.709270	-8.819155
U	-1.277258	-6.387356	-8.942299
U	3.831775	-3.832414	-6.387356
U	6.386292	-6.387356	-6.387356
U	1.277258	-3.832414	-8.942299
Ac	5.109034	0.000000	-5.109885
Ac	7.663551	-2.554942	-7.664827
O	9.063049	-1.154328	-6.264213
O	3.954015	1.154328	-9.065442
O	6.264052	-1.154328	-9.065442
O	6.508532	1.400614	-6.510499
O	11.373086	1.154328	-6.264213
O	6.508532	3.709270	-8.819155
O	8.818569	3.709270	-6.510499
O	8.818569	1.400614	-8.819155
U	3.831775	-1.277471	-8.942299
U	8.940809	1.277471	-6.387356
U	11.495326	-1.277471	-6.387356
U	6.386292	1.277471	-8.942299
