48

O	4.530062	1.491272	7.846297
O	2.916005	3.773893	7.846297
O	5.337090	3.773893	9.244111
O	5.337090	3.773893	6.448483
S	0.000000	0.000000	0.000000
Ba	3.020041	2.135492	5.230865
O	4.530062	1.491272	13.077162
O	2.916005	3.773893	13.077162
O	5.337090	3.773893	14.474976
O	5.337090	3.773893	11.679348
S	0.000000	0.000000	5.230865
Ba	3.020041	2.135492	10.461729
O	6.040082	5.762255	10.461729
O	4.426026	8.044876	10.461729
O	6.847111	8.044876	11.859543
O	6.847111	8.044876	9.063915
S	1.510021	4.270983	2.615432
Ba	4.530062	6.406475	7.846297
O	6.040082	5.762255	15.692594
O	4.426026	8.044876	15.692594
O	6.847111	8.044876	17.090408
O	6.847111	8.044876	14.294780
S	1.510021	4.270983	7.846297
Ba	4.530062	6.406475	13.077162
O	9.060123	1.491272	10.461729
O	7.446067	3.773893	10.461729
O	9.867152	3.773893	11.859543
O	9.867152	3.773893	9.063915
S	4.530062	0.000000	2.615432
Ba	7.550103	2.135492	7.846297
O	9.060123	1.491272	15.692594
O	7.446067	3.773893	15.692594
O	9.867152	3.773893	17.090408
O	9.867152	3.773893	14.294780
S	4.530062	0.000000	7.846297
Ba	7.550103	2.135492	13.077162
O	10.570144	5.762255	13.077162
O	8.956087	8.044876	13.077162
O	11.377172	8.044876	14.474976
O	11.377172	8.044876	11.679348
S	6.040082	4.270983	5.230865
Ba	9.060123	6.406475	10.461729
O	10.570144	5.762255	18.308026
O	8.956087	8.044876	18.308026
O	11.377172	8.044876	19.705840
O	11.377172	8.044876	16.910212
S	6.040082	4.270983	10.461729
Ba	9.060123	6.406475	15.692594
