112

O	3.710806	-1.130321	-1.130321
O	-1.130052	1.130321	-3.714346
O	1.130052	-1.130321	-3.714346
O	1.290377	1.292012	-1.292012
O	5.970909	1.130321	-1.130321
O	1.290377	3.552654	-3.552654
O	3.550480	3.552654	-1.292012
O	3.550480	1.292012	-3.552654
Ru	0.000000	0.000000	0.000000
Ru	2.420429	-2.422333	-2.422333
Sm	-1.210214	-1.211167	-3.633500
Sm	3.630643	1.211167	-1.211167
Sm	6.051071	-1.211167	-1.211167
Sm	1.210214	1.211167	-3.633500
O	8.551663	3.714346	-1.130321
O	3.710806	5.974988	-3.714346
O	5.970909	3.714346	-3.714346
O	6.131234	6.136679	-1.292012
O	10.811766	5.974988	-1.130321
O	6.131234	8.397321	-3.552654
O	8.391337	8.397321	-1.292012
O	8.391337	6.136679	-3.552654
Ru	4.840857	4.844667	0.000000
Ru	7.261286	2.422333	-2.422333
Sm	3.630643	3.633500	-3.633500
Sm	8.471500	6.055833	-1.211167
Sm	10.891929	3.633500	-1.211167
Sm	6.051072	6.055833	-3.633500
O	-1.130052	-1.130321	-5.974988
O	-5.970909	1.130321	-8.559012
O	-3.710806	-1.130321	-8.559012
O	-3.550480	1.292012	-6.136679
O	1.130052	1.130321	-5.974988
O	-3.550480	3.552654	-8.397321
O	-1.290377	3.552654	-6.136679
O	-1.290377	1.292012	-8.397321
Ru	-4.840857	0.000000	-4.844667
Ru	-2.420429	-2.422333	-7.267000
Sm	-6.051072	-1.211167	-8.478167
Sm	-1.210214	1.211167	-6.055833
Sm	1.210214	-1.211167	-6.055833
Sm	-3.630643	1.211167	-8.478167
O	3.710806	3.714346	-5.974988
O	-1.130052	5.974988	-8.559012
O	1.130052	3.714346	-8.559012
O	1.290377	6.136679	-6.136679
O	5.970909	5.974988	-5.974988
O	1.290377	8.397321	-8.397321
O	3.550480	8.397321	-6.136679
O	3.550480	6.136679	-8.397321
Ru	0.000000	4.844667	-4.844667
Ru	2.420429	2.422333	-7.267000
Sm	-1.210214	3.633500	-8.478167
Sm	3.630643	6.055833	-6.055833
Sm	6.051071	3.633500	-6.055833
Sm	1.210214	6.055833	-8.478167
O	8.551663	-5.974988	-1.130321
O	3.710806	-3.714346	-3.714346
O	5.970909	-5.974988	-3.714346
O	6.131234	-3.552654	-1.292012
O	10.811766	-3.714346	-1.130321
O	6.131234	-1.292012	-3.552654
O	8.391337	-1.292012	-1.292012
O	8.391337	-3.552654	-3.552654
Ru	4.840857	-4.844667	0.000000
Ru	7.261286	-7.267000	-2.422333
Sm	3.630643	-6.055833	-3.633500
Sm	8.471500	-3.633500	-1.211167
Sm	10.891929	-6.055833	-1.211167
Sm	6.051072	-3.633500	-3.633500
O	13.392520	-1.130321	-1.130321
O	8.551663	1.130321	-3.714346
O	10.811766	-1.130321	-3.714346
O	10.972091	1.292012	-1.292012
O	15.652623	1.130321	-1.130321
O	10.972091	3.552654	-3.552654
O	13.232195	3.552654	-1.292012
O	13.232195	1.292012	-3.552654
Ru	9.681714	0.000000	0.000000
Ru	12.102143	-2.422333	-2.422333
Sm	8.471500	-1.211167	-3.633500
Sm	13.312357	1.211167	-1.211167
Sm	15.732786	-1.211167	-1.211167
Sm	10.891929	1.211167	-3.633500
O	3.710806	-5.974988	-5.974988
O	-1.130052	-3.714346	-8.559012
O	1.130052	-5.974988	-8.559012
O	1.290377	-3.552654	-6.136679
O	5.970909	-3.714346	-5.974988
O	1.290377	-1.292012	-8.397321
O	3.550480	-1.292012	-6.136679
O	3.550480	-3.552654	-8.397321
Ru	0.000000	-4.844667	-4.844667
Ru	2.420429	-7.267000	-7.267000
Sm	-1.210214	-6.055833	-8.478167
Sm	3.630643	-3.633500	-6.055833
Sm	6.051071	-6.055833	-6.055833
Sm	1.210214	-3.633500	-8.478167
O	8.551663	-1.130321	-5.974988
O	3.710806	1.130321	-8.559012
O	5.970909	-1.130321	-8.559012
O	6.131234	1.292012	-6.136679
O	10.811766	1.130321	-5.974988
O	6.131234	3.552654	-8.397321
O	8.391337	3.552654	-6.136679
O	8.391337	1.292012	-8.397321
Ru	4.840857	0.000000	-4.844667
Ru	7.261286	-2.422333	-7.267000
Sm	3.630643	-1.211167	-8.478167
Sm	8.471500	1.211167	-6.055833
Sm	10.891929	-1.211167	-6.055833
Sm	6.051072	1.211167	-8.478167
