40

Cs	0.000000	0.000000	0.000000
K	2.391004	2.391004	2.391004
O	2.391004	2.391004	0.000000
O	2.391004	0.000000	2.391004
O	0.000000	2.391004	2.391004
Cs	0.000000	0.000000	4.782010
K	2.391004	2.391004	7.173014
O	2.391004	2.391004	4.782010
O	2.391004	0.000000	7.173014
O	0.000000	2.391004	7.173014
Cs	0.000000	4.782010	0.000000
K	2.391004	7.173014	2.391004
O	2.391004	7.173014	0.000000
O	2.391004	4.782010	2.391004
O	0.000000	7.173014	2.391004
Cs	0.000000	4.782010	4.782010
K	2.391004	7.173014	7.173014
O	2.391004	7.173014	4.782010
O	2.391004	4.782010	7.173014
O	0.000000	7.173014	7.173014
Cs	4.782010	0.000000	0.000000
K	7.173014	2.391004	2.391004
O	7.173014	2.391004	0.000000
O	7.173014	0.000000	2.391004
O	4.782010	2.391004	2.391004
Cs	4.782010	0.000000	4.782010
K	7.173014	2.391004	7.173014
O	7.173014	2.391004	4.782010
O	7.173014	0.000000	7.173014
O	4.782010	2.391004	7.173014
Cs	4.782010	4.782010	0.000000
K	7.173014	7.173014	2.391004
O	7.173014	7.173014	0.000000
O	7.173014	4.782010	2.391004
O	4.782010	7.173014	2.391004
Cs	4.782010	4.782010	4.782010
K	7.173014	7.173014	7.173014
O	7.173014	7.173014	4.782010
O	7.173014	4.782010	7.173014
O	4.782010	7.173014	7.173014
