40

Cs	0.000000	0.000000	0.000000
O	2.379345	2.379345	0.000000
O	2.379345	0.000000	2.379345
O	0.000000	2.379345	2.379345
Sr	2.379345	2.379345	2.379345
Cs	0.000000	0.000000	4.758683
O	2.379345	2.379345	4.758683
O	2.379345	0.000000	7.138029
O	0.000000	2.379345	7.138029
Sr	2.379345	2.379345	7.138029
Cs	0.000000	4.758683	0.000000
O	2.379345	7.138029	0.000000
O	2.379345	4.758683	2.379345
O	0.000000	7.138029	2.379345
Sr	2.379345	7.138029	2.379345
Cs	0.000000	4.758683	4.758683
O	2.379345	7.138029	4.758683
O	2.379345	4.758683	7.138029
O	0.000000	7.138029	7.138029
Sr	2.379345	7.138029	7.138029
Cs	4.758683	0.000000	0.000000
O	7.138029	2.379345	0.000000
O	7.138029	0.000000	2.379345
O	4.758683	2.379345	2.379345
Sr	7.138029	2.379345	2.379345
Cs	4.758683	0.000000	4.758683
O	7.138029	2.379345	4.758683
O	7.138029	0.000000	7.138029
O	4.758683	2.379345	7.138029
Sr	7.138029	2.379345	7.138029
Cs	4.758683	4.758683	0.000000
O	7.138029	7.138029	0.000000
O	7.138029	4.758683	2.379345
O	4.758683	7.138029	2.379345
Sr	7.138029	7.138029	2.379345
Cs	4.758683	4.758683	4.758683
O	7.138029	7.138029	4.758683
O	7.138029	4.758683	7.138029
O	4.758683	7.138029	7.138029
Sr	7.138029	7.138029	7.138029
