40

Ca	2.306815	2.306815	2.306815
O	0.000000	2.306815	2.306815
O	2.306815	0.000000	2.306815
O	2.306815	2.306815	0.000000
Rb	0.000000	0.000000	0.000000
Ca	2.306815	2.306815	6.920445
O	0.000000	2.306815	6.920445
O	2.306815	0.000000	6.920445
O	2.306815	2.306815	4.613630
Rb	0.000000	0.000000	4.613630
Ca	2.306815	6.920445	2.306815
O	0.000000	6.920445	2.306815
O	2.306815	4.613630	2.306815
O	2.306815	6.920445	0.000000
Rb	0.000000	4.613630	0.000000
Ca	2.306815	6.920445	6.920445
O	0.000000	6.920445	6.920445
O	2.306815	4.613630	6.920445
O	2.306815	6.920445	4.613630
Rb	0.000000	4.613630	4.613630
Ca	6.920445	2.306815	2.306815
O	4.613630	2.306815	2.306815
O	6.920445	0.000000	2.306815
O	6.920445	2.306815	0.000000
Rb	4.613630	0.000000	0.000000
Ca	6.920445	2.306815	6.920445
O	4.613630	2.306815	6.920445
O	6.920445	0.000000	6.920445
O	6.920445	2.306815	4.613630
Rb	4.613630	0.000000	4.613630
Ca	6.920445	6.920445	2.306815
O	4.613630	6.920445	2.306815
O	6.920445	4.613630	2.306815
O	6.920445	6.920445	0.000000
Rb	4.613630	4.613630	0.000000
Ca	6.920445	6.920445	6.920445
O	4.613630	6.920445	6.920445
O	6.920445	4.613630	6.920445
O	6.920445	6.920445	4.613630
Rb	4.613630	4.613630	4.613630
