40

Ca	0.000000	0.000000	0.000000
O	2.151664	2.151664	0.000000
O	2.151664	0.000000	2.151664
O	0.000000	2.151664	2.151664
Rb	2.151664	2.151664	2.151664
Ca	0.000000	0.000000	4.303331
O	2.151664	2.151664	4.303331
O	2.151664	0.000000	6.454995
O	0.000000	2.151664	6.454995
Rb	2.151664	2.151664	6.454995
Ca	0.000000	4.303331	0.000000
O	2.151664	6.454995	0.000000
O	2.151664	4.303331	2.151664
O	0.000000	6.454995	2.151664
Rb	2.151664	6.454995	2.151664
Ca	0.000000	4.303331	4.303331
O	2.151664	6.454995	4.303331
O	2.151664	4.303331	6.454995
O	0.000000	6.454995	6.454995
Rb	2.151664	6.454995	6.454995
Ca	4.303331	0.000000	0.000000
O	6.454995	2.151664	0.000000
O	6.454995	0.000000	2.151664
O	4.303331	2.151664	2.151664
Rb	6.454995	2.151664	2.151664
Ca	4.303331	0.000000	4.303331
O	6.454995	2.151664	4.303331
O	6.454995	0.000000	6.454995
O	4.303331	2.151664	6.454995
Rb	6.454995	2.151664	6.454995
Ca	4.303331	4.303331	0.000000
O	6.454995	6.454995	0.000000
O	6.454995	4.303331	2.151664
O	4.303331	6.454995	2.151664
Rb	6.454995	6.454995	2.151664
Ca	4.303331	4.303331	4.303331
O	6.454995	6.454995	4.303331
O	6.454995	4.303331	6.454995
O	4.303331	6.454995	6.454995
Rb	6.454995	6.454995	6.454995
