40

O	2.077540	2.077540	0.000000
O	0.000000	2.077540	2.077540
O	2.077540	0.000000	2.077540
Rh	0.000000	0.000000	0.000000
Yb_2	2.077540	2.077540	2.077540
O	2.077540	2.077540	4.155062
O	0.000000	2.077540	6.232602
O	2.077540	0.000000	6.232602
Rh	0.000000	0.000000	4.155062
Yb_2	2.077540	2.077540	6.232602
O	2.077540	6.232602	0.000000
O	0.000000	6.232602	2.077540
O	2.077540	4.155062	2.077540
Rh	0.000000	4.155062	0.000000
Yb_2	2.077540	6.232602	2.077540
O	2.077540	6.232602	4.155062
O	0.000000	6.232602	6.232602
O	2.077540	4.155062	6.232602
Rh	0.000000	4.155062	4.155062
Yb_2	2.077540	6.232602	6.232602
O	6.232602	2.077540	0.000000
O	4.155062	2.077540	2.077540
O	6.232602	0.000000	2.077540
Rh	4.155062	0.000000	0.000000
Yb_2	6.232602	2.077540	2.077540
O	6.232602	2.077540	4.155062
O	4.155062	2.077540	6.232602
O	6.232602	0.000000	6.232602
Rh	4.155062	0.000000	4.155062
Yb_2	6.232602	2.077540	6.232602
O	6.232602	6.232602	0.000000
O	4.155062	6.232602	2.077540
O	6.232602	4.155062	2.077540
Rh	4.155062	4.155062	0.000000
Yb_2	6.232602	6.232602	2.077540
O	6.232602	6.232602	4.155062
O	4.155062	6.232602	6.232602
O	6.232602	4.155062	6.232602
Rh	4.155062	4.155062	4.155062
Yb_2	6.232602	6.232602	6.232602
