40

B	1.668080	1.668080	1.668080
Cr	0.000000	0.000000	0.000000
O	1.668080	0.000000	1.668080
O	0.000000	1.668080	1.668080
O	1.668080	1.668080	0.000000
B	1.668080	1.668080	5.004243
Cr	0.000000	0.000000	3.336163
O	1.668080	0.000000	5.004243
O	0.000000	1.668080	5.004243
O	1.668080	1.668080	3.336163
B	1.668080	5.004243	1.668080
Cr	0.000000	3.336163	0.000000
O	1.668080	3.336163	1.668080
O	0.000000	5.004243	1.668080
O	1.668080	5.004243	0.000000
B	1.668080	5.004243	5.004243
Cr	0.000000	3.336163	3.336163
O	1.668080	3.336163	5.004243
O	0.000000	5.004243	5.004243
O	1.668080	5.004243	3.336163
B	5.004243	1.668080	1.668080
Cr	3.336163	0.000000	0.000000
O	5.004243	0.000000	1.668080
O	3.336163	1.668080	1.668080
O	5.004243	1.668080	0.000000
B	5.004243	1.668080	5.004243
Cr	3.336163	0.000000	3.336163
O	5.004243	0.000000	5.004243
O	3.336163	1.668080	5.004243
O	5.004243	1.668080	3.336163
B	5.004243	5.004243	1.668080
Cr	3.336163	3.336163	0.000000
O	5.004243	3.336163	1.668080
O	3.336163	5.004243	1.668080
O	5.004243	5.004243	0.000000
B	5.004243	5.004243	5.004243
Cr	3.336163	3.336163	3.336163
O	5.004243	3.336163	5.004243
O	3.336163	5.004243	5.004243
O	5.004243	5.004243	3.336163
