112

Ca	0.000000	0.000000	0.000000
Ca	2.462988	-2.463368	-2.463368
O	-1.128210	1.127911	-3.798824
O	3.797766	-1.127911	-1.127911
O	1.128210	-1.127911	-3.798824
O	1.334778	1.335456	-1.335456
O	6.054176	1.127911	-1.127911
O	1.334778	3.591289	-3.591289
O	3.591188	3.591289	-1.335456
O	3.591188	1.335456	-3.591289
Pm	-1.231494	-1.231684	-3.695061
Pm	6.157460	-1.231684	-1.231684
Pm	3.694482	1.231684	-1.231684
Pm	1.231494	1.231684	-3.695061
Ca	4.925971	4.926742	0.000000
Ca	7.388959	2.463374	-2.463368
O	3.797761	6.054653	-3.798824
O	8.723737	3.798830	-1.127911
O	6.054181	3.798830	-3.798824
O	6.260749	6.262198	-1.335456
O	10.980147	6.054653	-1.127911
O	6.260749	8.518031	-3.591289
O	8.517159	8.518030	-1.335456
O	8.517159	6.262198	-3.591289
Pm	3.694477	3.695058	-3.695061
Pm	11.083431	3.695058	-1.231684
Pm	8.620453	6.158425	-1.231684
Pm	6.157465	6.158425	-3.695061
Ca	-4.925971	0.000000	-4.926742
Ca	-2.462983	-2.463368	-7.390109
O	-6.054181	1.127911	-8.725565
O	-1.128205	-1.127911	-6.054653
O	-3.797761	-1.127911	-8.725565
O	-3.591193	1.335456	-6.262198
O	1.128205	1.127911	-6.054653
O	-3.591193	3.591289	-8.518030
O	-1.334783	3.591289	-6.262198
O	-1.334783	1.335456	-8.518030
Pm	-6.157465	-1.231684	-8.621803
Pm	1.231489	-1.231684	-6.158425
Pm	-1.231489	1.231684	-6.158425
Pm	-3.694477	1.231684	-8.621803
Ca	0.000000	4.926742	-4.926742
Ca	2.462988	2.463374	-7.390109
O	-1.128210	6.054653	-8.725565
O	3.797766	3.798830	-6.054653
O	1.128210	3.798830	-8.725565
O	1.334778	6.262198	-6.262198
O	6.054176	6.054653	-6.054653
O	1.334778	8.518031	-8.518030
O	3.591188	8.518030	-6.262198
O	3.591188	6.262198	-8.518030
Pm	-1.231494	3.695058	-8.621803
Pm	6.157460	3.695058	-6.158425
Pm	3.694482	6.158425	-6.158425
Pm	1.231494	6.158425	-8.621803
Ca	4.925971	-4.926742	0.000000
Ca	7.388959	-7.390109	-2.463368
O	3.797761	-3.798830	-3.798824
O	8.723737	-6.054653	-1.127911
O	6.054181	-6.054653	-3.798824
O	6.260749	-3.591286	-1.335456
O	10.980147	-3.798830	-1.127911
O	6.260749	-1.335453	-3.591289
O	8.517159	-1.335453	-1.335456
O	8.517159	-3.591286	-3.591289
Pm	3.694477	-6.158425	-3.695061
Pm	11.083431	-6.158425	-1.231684
Pm	8.620453	-3.695058	-1.231684
Pm	6.157465	-3.695058	-3.695061
Ca	9.851942	0.000000	0.000000
Ca	12.314930	-2.463368	-2.463368
O	8.723732	1.127911	-3.798824
O	13.649708	-1.127911	-1.127911
O	10.980152	-1.127911	-3.798824
O	11.186720	1.335456	-1.335456
O	15.906118	1.127911	-1.127911
O	11.186720	3.591289	-3.591289
O	13.443130	3.591289	-1.335456
O	13.443130	1.335456	-3.591289
Pm	8.620448	-1.231684	-3.695061
Pm	16.009402	-1.231684	-1.231684
Pm	13.546424	1.231684	-1.231684
Pm	11.083436	1.231684	-3.695061
Ca	0.000000	-4.926742	-4.926742
Ca	2.462988	-7.390109	-7.390109
O	-1.128210	-3.798830	-8.725565
O	3.797766	-6.054653	-6.054653
O	1.128210	-6.054653	-8.725565
O	1.334778	-3.591286	-6.262198
O	6.054176	-3.798830	-6.054653
O	1.334778	-1.335453	-8.518030
O	3.591188	-1.335453	-6.262198
O	3.591188	-3.591286	-8.518030
Pm	-1.231494	-6.158425	-8.621803
Pm	6.157460	-6.158425	-6.158425
Pm	3.694482	-3.695058	-6.158425
Pm	1.231494	-3.695058	-8.621803
Ca	4.925971	0.000000	-4.926742
Ca	7.388959	-2.463368	-7.390109
O	3.797761	1.127911	-8.725565
O	8.723737	-1.127911	-6.054653
O	6.054181	-1.127911	-8.725565
O	6.260749	1.335456	-6.262198
O	10.980147	1.127911	-6.054653
O	6.260749	3.591289	-8.518030
O	8.517159	3.591289	-6.262198
O	8.517159	1.335456	-8.518030
Pm	3.694477	-1.231684	-8.621803
Pm	11.083431	-1.231684	-6.158425
Pm	8.620453	1.231684	-6.158425
Pm	6.157465	1.231684	-8.621803
