112

O	3.788249	-1.158586	-1.158586
O	-1.158805	1.158586	-3.790303
O	1.158805	-1.158586	-3.790303
O	1.314722	1.315859	-1.315859
O	6.105858	1.158586	-1.158586
O	1.314722	3.633030	-3.633030
O	3.632331	3.633030	-1.315859
O	3.632331	1.315859	-3.633030
Pm	0.000000	0.000000	0.000000
Pm	2.473527	-2.474444	-2.474444
Sm	-1.236763	-1.237222	-3.711667
Sm	3.710290	1.237222	-1.237222
Sm	6.183817	-1.237222	-1.237222
Sm	1.236763	1.237222	-3.711667
O	8.735303	3.790303	-1.158586
O	3.788249	6.107475	-3.790303
O	6.105858	3.790303	-3.790303
O	6.261776	6.264748	-1.315859
O	11.052912	6.107475	-1.158586
O	6.261776	8.581919	-3.633030
O	8.579385	8.581919	-1.315859
O	8.579385	6.264748	-3.633030
Pm	4.947054	4.948889	0.000000
Pm	7.420581	2.474444	-2.474444
Sm	3.710290	3.711667	-3.711667
Sm	8.657344	6.186111	-1.237222
Sm	11.130871	3.711667	-1.237222
Sm	6.183817	6.186111	-3.711667
O	-1.158805	-1.158586	-6.107475
O	-6.105858	1.158586	-8.739192
O	-3.788249	-1.158586	-8.739192
O	-3.632331	1.315859	-6.264748
O	1.158805	1.158586	-6.107475
O	-3.632331	3.633030	-8.581919
O	-1.314722	3.633030	-6.264748
O	-1.314722	1.315859	-8.581919
Pm	-4.947054	0.000000	-4.948889
Pm	-2.473527	-2.474444	-7.423333
Sm	-6.183817	-1.237222	-8.660556
Sm	-1.236763	1.237222	-6.186111
Sm	1.236763	-1.237222	-6.186111
Sm	-3.710290	1.237222	-8.660556
O	3.788249	3.790303	-6.107475
O	-1.158805	6.107475	-8.739192
O	1.158805	3.790303	-8.739192
O	1.314722	6.264748	-6.264748
O	6.105858	6.107475	-6.107475
O	1.314722	8.581919	-8.581919
O	3.632331	8.581919	-6.264748
O	3.632331	6.264748	-8.581919
Pm	0.000000	4.948889	-4.948889
Pm	2.473527	2.474444	-7.423333
Sm	-1.236763	3.711667	-8.660556
Sm	3.710290	6.186111	-6.186111
Sm	6.183817	3.711667	-6.186111
Sm	1.236763	6.186111	-8.660556
O	8.735303	-6.107475	-1.158586
O	3.788249	-3.790303	-3.790303
O	6.105858	-6.107475	-3.790303
O	6.261776	-3.633030	-1.315859
O	11.052912	-3.790303	-1.158586
O	6.261776	-1.315859	-3.633030
O	8.579385	-1.315859	-1.315859
O	8.579385	-3.633030	-3.633030
Pm	4.947054	-4.948889	0.000000
Pm	7.420581	-7.423333	-2.474444
Sm	3.710290	-6.186111	-3.711667
Sm	8.657344	-3.711667	-1.237222
Sm	11.130871	-6.186111	-1.237222
Sm	6.183817	-3.711667	-3.711667
O	13.682357	-1.158586	-1.158586
O	8.735303	1.158586	-3.790303
O	11.052912	-1.158586	-3.790303
O	11.208830	1.315859	-1.315859
O	15.999966	1.158586	-1.158586
O	11.208830	3.633030	-3.633030
O	13.526439	3.633030	-1.315859
O	13.526439	1.315859	-3.633030
Pm	9.894108	0.000000	0.000000
Pm	12.367635	-2.474444	-2.474444
Sm	8.657344	-1.237222	-3.711667
Sm	13.604398	1.237222	-1.237222
Sm	16.077925	-1.237222	-1.237222
Sm	11.130871	1.237222	-3.711667
O	3.788249	-6.107475	-6.107475
O	-1.158805	-3.790303	-8.739192
O	1.158805	-6.107475	-8.739192
O	1.314722	-3.633030	-6.264748
O	6.105858	-3.790303	-6.107475
O	1.314722	-1.315859	-8.581919
O	3.632331	-1.315859	-6.264748
O	3.632331	-3.633030	-8.581919
Pm	0.000000	-4.948889	-4.948889
Pm	2.473527	-7.423333	-7.423333
Sm	-1.236763	-6.186111	-8.660556
Sm	3.710290	-3.711667	-6.186111
Sm	6.183817	-6.186111	-6.186111
Sm	1.236763	-3.711667	-8.660556
O	8.735303	-1.158586	-6.107475
O	3.788249	1.158586	-8.739192
O	6.105858	-1.158586	-8.739192
O	6.261776	1.315859	-6.264748
O	11.052912	1.158586	-6.107475
O	6.261776	3.633030	-8.581919
O	8.579385	3.633030	-6.264748
O	8.579385	1.315859	-8.581919
Pm	4.947054	0.000000	-4.948889
Pm	7.420581	-2.474444	-7.423333
Sm	3.710290	-1.237222	-8.660556
Sm	8.657344	1.237222	-6.186111
Sm	11.130871	-1.237222	-6.186111
Sm	6.183817	1.237222	-8.660556
