112

Ca	0.000000	0.000000	0.000000
Ca	2.193344	-2.193927	-2.193927
Li	-1.096672	-1.096963	-3.290890
Li	3.290015	1.096963	-1.096963
Li	5.483359	-1.096963	-1.096963
Li	1.096672	1.096963	-3.290890
O	3.471096	-0.914940	-0.914940
O	-0.915591	0.914940	-3.472914
O	0.915591	-0.914940	-3.472914
O	1.277753	1.278987	-1.278987
O	5.302278	0.914940	-0.914940
O	1.277753	3.108866	-3.108866
O	3.108934	3.108866	-1.278987
O	3.108934	1.278987	-3.108866
Ca	4.386687	4.387854	0.000000
Ca	6.580031	2.193927	-2.193927
Li	3.290015	3.290890	-3.290890
Li	7.676703	5.484817	-1.096963
Li	9.870046	3.290890	-1.096963
Li	5.483359	5.484817	-3.290890
O	7.857784	3.472914	-0.914940
O	3.471096	5.302793	-3.472914
O	5.302278	3.472914	-3.472914
O	5.664440	5.666841	-1.278987
O	9.688965	5.302793	-0.914940
O	5.664440	7.496720	-3.108866
O	7.495622	7.496720	-1.278987
O	7.495622	5.666841	-3.108866
Ca	-4.386687	0.000000	-4.387854
Ca	-2.193344	-2.193927	-6.581780
Li	-5.483359	-1.096963	-7.678744
Li	-1.096672	1.096963	-5.484817
Li	1.096672	-1.096963	-5.484817
Li	-3.290015	1.096963	-7.678744
O	-0.915591	-0.914940	-5.302793
O	-5.302278	0.914940	-7.860767
O	-3.471096	-0.914940	-7.860767
O	-3.108934	1.278987	-5.666841
O	0.915591	0.914940	-5.302793
O	-3.108934	3.108866	-7.496720
O	-1.277753	3.108866	-5.666841
O	-1.277753	1.278987	-7.496720
Ca	0.000000	4.387854	-4.387854
Ca	2.193344	2.193927	-6.581780
Li	-1.096672	3.290890	-7.678744
Li	3.290015	5.484817	-5.484817
Li	5.483359	3.290890	-5.484817
Li	1.096672	5.484817	-7.678744
O	3.471096	3.472914	-5.302793
O	-0.915591	5.302793	-7.860767
O	0.915591	3.472914	-7.860767
O	1.277753	5.666841	-5.666841
O	5.302278	5.302793	-5.302793
O	1.277753	7.496720	-7.496720
O	3.108934	7.496720	-5.666841
O	3.108934	5.666841	-7.496720
Ca	4.386687	-4.387854	0.000000
Ca	6.580031	-6.581780	-2.193927
Li	3.290015	-5.484817	-3.290890
Li	7.676703	-3.290890	-1.096963
Li	9.870046	-5.484817	-1.096963
Li	5.483359	-3.290890	-3.290890
O	7.857784	-5.302793	-0.914940
O	3.471096	-3.472914	-3.472914
O	5.302278	-5.302793	-3.472914
O	5.664440	-3.108866	-1.278987
O	9.688965	-3.472914	-0.914940
O	5.664440	-1.278987	-3.108866
O	7.495622	-1.278987	-1.278987
O	7.495622	-3.108866	-3.108866
Ca	8.773375	0.000000	0.000000
Ca	10.966718	-2.193927	-2.193927
Li	7.676703	-1.096963	-3.290890
Li	12.063390	1.096963	-1.096963
Li	14.256734	-1.096963	-1.096963
Li	9.870046	1.096963	-3.290890
O	12.244471	-0.914940	-0.914940
O	7.857784	0.914940	-3.472914
O	9.688965	-0.914940	-3.472914
O	10.051127	1.278987	-1.278987
O	14.075653	0.914940	-0.914940
O	10.051127	3.108866	-3.108866
O	11.882309	3.108866	-1.278987
O	11.882309	1.278987	-3.108866
Ca	0.000000	-4.387854	-4.387854
Ca	2.193344	-6.581780	-6.581780
Li	-1.096672	-5.484817	-7.678744
Li	3.290015	-3.290890	-5.484817
Li	5.483359	-5.484817	-5.484817
Li	1.096672	-3.290890	-7.678744
O	3.471096	-5.302793	-5.302793
O	-0.915591	-3.472914	-7.860767
O	0.915591	-5.302793	-7.860767
O	1.277753	-3.108866	-5.666841
O	5.302278	-3.472914	-5.302793
O	1.277753	-1.278987	-7.496720
O	3.108934	-1.278987	-5.666841
O	3.108934	-3.108866	-7.496720
Ca	4.386687	0.000000	-4.387854
Ca	6.580031	-2.193927	-6.581780
Li	3.290015	-1.096963	-7.678744
Li	7.676703	1.096963	-5.484817
Li	9.870046	-1.096963	-5.484817
Li	5.483359	1.096963	-7.678744
O	7.857784	-0.914940	-5.302793
O	3.471096	0.914940	-7.860767
O	5.302278	-0.914940	-7.860767
O	5.664440	1.278987	-5.666841
O	9.688965	0.914940	-5.302793
O	5.664440	3.108866	-7.496720
O	7.495622	3.108866	-5.666841
O	7.495622	1.278987	-7.496720
