40

Ba	2.215268	2.215268	2.215268
Ce	0.000000	0.000000	0.000000
O	2.215268	-0.015000	0.000000
O	0.000000	2.215268	0.000000
O	0.000000	0.000000	2.215268
Ba	2.215268	2.215268	6.645804
Ce	0.000000	0.000000	4.430536
O	2.215268	-0.015000	4.430536
O	0.000000	2.215268	4.430536
O	0.000000	0.000000	6.645804
Ba	2.215268	6.645804	2.215268
Ce	0.000000	4.430536	0.000000
O	2.215268	4.415536	0.000000
O	0.000000	6.645804	0.000000
O	0.000000	4.430536	2.215268
Ba	2.215268	6.645804	6.645804
Ce	0.000000	4.430536	4.430536
O	2.215268	4.415536	4.430536
O	0.000000	6.645804	4.430536
O	0.000000	4.430536	6.645804
Ba	6.645804	2.215268	2.215268
Ce	4.430536	0.000000	0.000000
O	6.645804	-0.015000	0.000000
O	4.430536	2.215268	0.000000
O	4.430536	0.000000	2.215268
Ba	6.645804	2.215268	6.645804
Ce	4.430536	0.000000	4.430536
O	6.645804	-0.015000	4.430536
O	4.430536	2.215268	4.430536
O	4.430536	0.000000	6.645804
Ba	6.645804	6.645804	2.215268
Ce	4.430536	4.430536	0.000000
O	6.645804	4.415536	0.000000
O	4.430536	6.645804	0.000000
O	4.430536	4.430536	2.215268
Ba	6.645804	6.645804	6.645804
Ce	4.430536	4.430536	4.430536
O	6.645804	4.415536	4.430536
O	4.430536	6.645804	4.430536
O	4.430536	4.430536	6.645804
