40

Ba	0.000000	0.000000	0.000000
Ce	2.214266	2.214266	2.214266
O	2.214266	2.214266	-0.015000
O	0.000000	2.214266	2.214266
O	2.214266	0.000000	2.214266
Ba	0.000000	0.000000	4.428531
Ce	2.214266	2.214266	6.642797
O	2.214266	2.214266	4.413531
O	0.000000	2.214266	6.642797
O	2.214266	0.000000	6.642797
Ba	0.000000	4.428531	0.000000
Ce	2.214266	6.642797	2.214266
O	2.214266	6.642797	-0.015000
O	0.000000	6.642797	2.214266
O	2.214266	4.428531	2.214266
Ba	0.000000	4.428531	4.428531
Ce	2.214266	6.642797	6.642797
O	2.214266	6.642797	4.413531
O	0.000000	6.642797	6.642797
O	2.214266	4.428531	6.642797
Ba	4.428531	0.000000	0.000000
Ce	6.642797	2.214266	2.214266
O	6.642797	2.214266	-0.015000
O	4.428531	2.214266	2.214266
O	6.642797	0.000000	2.214266
Ba	4.428531	0.000000	4.428531
Ce	6.642797	2.214266	6.642797
O	6.642797	2.214266	4.413531
O	4.428531	2.214266	6.642797
O	6.642797	0.000000	6.642797
Ba	4.428531	4.428531	0.000000
Ce	6.642797	6.642797	2.214266
O	6.642797	6.642797	-0.015000
O	4.428531	6.642797	2.214266
O	6.642797	4.428531	2.214266
Ba	4.428531	4.428531	4.428531
Ce	6.642797	6.642797	6.642797
O	6.642797	6.642797	4.413531
O	4.428531	6.642797	6.642797
O	6.642797	4.428531	6.642797
