40

Ga	1.914896	1.914896	1.914896
In	0.000000	0.000000	0.000000
O	0.000000	1.914896	1.914896
O	1.914896	0.000000	1.914896
O	1.914896	1.914896	0.000000
Ga	1.914896	1.914896	5.744689
In	0.000000	0.000000	3.829793
O	0.000000	1.914896	5.744689
O	1.914896	0.000000	5.744689
O	1.914896	1.914896	3.829793
Ga	1.914896	5.744689	1.914896
In	0.000000	3.829793	0.000000
O	0.000000	5.744689	1.914896
O	1.914896	3.829793	1.914896
O	1.914896	5.744689	0.000000
Ga	1.914896	5.744689	5.744689
In	0.000000	3.829793	3.829793
O	0.000000	5.744689	5.744689
O	1.914896	3.829793	5.744689
O	1.914896	5.744689	3.829793
Ga	5.744689	1.914896	1.914896
In	3.829793	0.000000	0.000000
O	3.829793	1.914896	1.914896
O	5.744689	0.000000	1.914896
O	5.744689	1.914896	0.000000
Ga	5.744689	1.914896	5.744689
In	3.829793	0.000000	3.829793
O	3.829793	1.914896	5.744689
O	5.744689	0.000000	5.744689
O	5.744689	1.914896	3.829793
Ga	5.744689	5.744689	1.914896
In	3.829793	3.829793	0.000000
O	3.829793	5.744689	1.914896
O	5.744689	3.829793	1.914896
O	5.744689	5.744689	0.000000
Ga	5.744689	5.744689	5.744689
In	3.829793	3.829793	3.829793
O	3.829793	5.744689	5.744689
O	5.744689	3.829793	5.744689
O	5.744689	5.744689	3.829793
