40

Mg	2.012603	2.012603	2.012603
O	0.000000	2.012603	2.012603
O	2.012603	0.000000	2.012603
O	2.012603	2.012603	0.000000
Sr	0.000000	0.000000	0.000000
Mg	2.012603	2.012603	6.037809
O	0.000000	2.012603	6.037809
O	2.012603	0.000000	6.037809
O	2.012603	2.012603	4.025206
Sr	0.000000	0.000000	4.025206
Mg	2.012603	6.037809	2.012603
O	0.000000	6.037809	2.012603
O	2.012603	4.025206	2.012603
O	2.012603	6.037809	0.000000
Sr	0.000000	4.025206	0.000000
Mg	2.012603	6.037809	6.037809
O	0.000000	6.037809	6.037809
O	2.012603	4.025206	6.037809
O	2.012603	6.037809	4.025206
Sr	0.000000	4.025206	4.025206
Mg	6.037809	2.012603	2.012603
O	4.025206	2.012603	2.012603
O	6.037809	0.000000	2.012603
O	6.037809	2.012603	0.000000
Sr	4.025206	0.000000	0.000000
Mg	6.037809	2.012603	6.037809
O	4.025206	2.012603	6.037809
O	6.037809	0.000000	6.037809
O	6.037809	2.012603	4.025206
Sr	4.025206	0.000000	4.025206
Mg	6.037809	6.037809	2.012603
O	4.025206	6.037809	2.012603
O	6.037809	4.025206	2.012603
O	6.037809	6.037809	0.000000
Sr	4.025206	4.025206	0.000000
Mg	6.037809	6.037809	6.037809
O	4.025206	6.037809	6.037809
O	6.037809	4.025206	6.037809
O	6.037809	6.037809	4.025206
Sr	4.025206	4.025206	4.025206
