40

In	2.054397	2.054397	2.054397
O	0.000000	2.054397	2.054397
O	2.054397	0.000000	2.054397
O	2.054397	2.054397	0.000000
Zn	0.000000	0.000000	0.000000
In	2.054397	2.054397	6.163190
O	0.000000	2.054397	6.163190
O	2.054397	0.000000	6.163190
O	2.054397	2.054397	4.108793
Zn	0.000000	0.000000	4.108793
In	2.054397	6.163190	2.054397
O	0.000000	6.163190	2.054397
O	2.054397	4.108793	2.054397
O	2.054397	6.163190	0.000000
Zn	0.000000	4.108793	0.000000
In	2.054397	6.163190	6.163190
O	0.000000	6.163190	6.163190
O	2.054397	4.108793	6.163190
O	2.054397	6.163190	4.108793
Zn	0.000000	4.108793	4.108793
In	6.163190	2.054397	2.054397
O	4.108793	2.054397	2.054397
O	6.163190	0.000000	2.054397
O	6.163190	2.054397	0.000000
Zn	4.108793	0.000000	0.000000
In	6.163190	2.054397	6.163190
O	4.108793	2.054397	6.163190
O	6.163190	0.000000	6.163190
O	6.163190	2.054397	4.108793
Zn	4.108793	0.000000	4.108793
In	6.163190	6.163190	2.054397
O	4.108793	6.163190	2.054397
O	6.163190	4.108793	2.054397
O	6.163190	6.163190	0.000000
Zn	4.108793	4.108793	0.000000
In	6.163190	6.163190	6.163190
O	4.108793	6.163190	6.163190
O	6.163190	4.108793	6.163190
O	6.163190	6.163190	4.108793
Zn	4.108793	4.108793	4.108793
