40

Na	0.000000	0.000000	0.000000
O	2.205908	2.205908	0.000000
O	2.205908	0.000000	2.205908
O	0.000000	2.205908	2.205908
Rb	2.205908	2.205908	2.205908
Na	0.000000	0.000000	4.411804
O	2.205908	2.205908	4.411804
O	2.205908	0.000000	6.617713
O	0.000000	2.205908	6.617713
Rb	2.205908	2.205908	6.617713
Na	0.000000	4.411804	0.000000
O	2.205908	6.617713	0.000000
O	2.205908	4.411804	2.205908
O	0.000000	6.617713	2.205908
Rb	2.205908	6.617713	2.205908
Na	0.000000	4.411804	4.411804
O	2.205908	6.617713	4.411804
O	2.205908	4.411804	6.617713
O	0.000000	6.617713	6.617713
Rb	2.205908	6.617713	6.617713
Na	4.411804	0.000000	0.000000
O	6.617713	2.205908	0.000000
O	6.617713	0.000000	2.205908
O	4.411804	2.205908	2.205908
Rb	6.617713	2.205908	2.205908
Na	4.411804	0.000000	4.411804
O	6.617713	2.205908	4.411804
O	6.617713	0.000000	6.617713
O	4.411804	2.205908	6.617713
Rb	6.617713	2.205908	6.617713
Na	4.411804	4.411804	0.000000
O	6.617713	6.617713	0.000000
O	6.617713	4.411804	2.205908
O	4.411804	6.617713	2.205908
Rb	6.617713	6.617713	2.205908
Na	4.411804	4.411804	4.411804
O	6.617713	6.617713	4.411804
O	6.617713	4.411804	6.617713
O	4.411804	6.617713	6.617713
Rb	6.617713	6.617713	6.617713
