40

Be	1.718827	1.718827	1.718827
O	1.718827	1.718827	0.000000
O	1.718827	0.000000	1.718827
O	0.000000	1.718827	1.718827
Os	0.000000	0.000000	0.000000
Be	1.718827	1.718827	5.156481
O	1.718827	1.718827	3.437654
O	1.718827	0.000000	5.156481
O	0.000000	1.718827	5.156481
Os	0.000000	0.000000	3.437654
Be	1.718827	5.156481	1.718827
O	1.718827	5.156481	0.000000
O	1.718827	3.437654	1.718827
O	0.000000	5.156481	1.718827
Os	0.000000	3.437654	0.000000
Be	1.718827	5.156481	5.156481
O	1.718827	5.156481	3.437654
O	1.718827	3.437654	5.156481
O	0.000000	5.156481	5.156481
Os	0.000000	3.437654	3.437654
Be	5.156481	1.718827	1.718827
O	5.156481	1.718827	0.000000
O	5.156481	0.000000	1.718827
O	3.437654	1.718827	1.718827
Os	3.437654	0.000000	0.000000
Be	5.156481	1.718827	5.156481
O	5.156481	1.718827	3.437654
O	5.156481	0.000000	5.156481
O	3.437654	1.718827	5.156481
Os	3.437654	0.000000	3.437654
Be	5.156481	5.156481	1.718827
O	5.156481	5.156481	0.000000
O	5.156481	3.437654	1.718827
O	3.437654	5.156481	1.718827
Os	3.437654	3.437654	0.000000
Be	5.156481	5.156481	5.156481
O	5.156481	5.156481	3.437654
O	5.156481	3.437654	5.156481
O	3.437654	5.156481	5.156481
Os	3.437654	3.437654	3.437654
