40

O	0.000000	2.263150	2.263150
O	2.263150	0.000000	2.263150
O	2.263150	2.263150	0.000000
Sr	2.263150	2.263150	2.263150
Te	0.000000	0.000000	0.000000
O	0.000000	2.263150	6.789451
O	2.263150	0.000000	6.789451
O	2.263150	2.263150	4.526300
Sr	2.263150	2.263150	6.789451
Te	0.000000	0.000000	4.526300
O	0.000000	6.789451	2.263150
O	2.263150	4.526300	2.263150
O	2.263150	6.789451	0.000000
Sr	2.263150	6.789451	2.263150
Te	0.000000	4.526300	0.000000
O	0.000000	6.789451	6.789451
O	2.263150	4.526300	6.789451
O	2.263150	6.789451	4.526300
Sr	2.263150	6.789451	6.789451
Te	0.000000	4.526300	4.526300
O	4.526300	2.263150	2.263150
O	6.789451	0.000000	2.263150
O	6.789451	2.263150	0.000000
Sr	6.789451	2.263150	2.263150
Te	4.526300	0.000000	0.000000
O	4.526300	2.263150	6.789451
O	6.789451	0.000000	6.789451
O	6.789451	2.263150	4.526300
Sr	6.789451	2.263150	6.789451
Te	4.526300	0.000000	4.526300
O	4.526300	6.789451	2.263150
O	6.789451	4.526300	2.263150
O	6.789451	6.789451	0.000000
Sr	6.789451	6.789451	2.263150
Te	4.526300	4.526300	0.000000
O	4.526300	6.789451	6.789451
O	6.789451	4.526300	6.789451
O	6.789451	6.789451	4.526300
Sr	6.789451	6.789451	6.789451
Te	4.526300	4.526300	4.526300
