40

Pu	2.067233	2.067202	2.067149
Ir	-0.000006	0.000004	4.134302
O	2.067235	2.067202	-0.000001
O	2.067235	4.134401	2.067152
O	0.000000	2.067201	2.067153
Pu	2.067226	2.067206	6.201452
Ir	-0.000013	0.000008	8.268605
O	2.067229	2.067205	4.134301
O	2.067229	4.134405	6.201454
O	-0.000006	2.067204	6.201456
Pu	2.067238	6.201600	2.067153
Ir	-0.000001	4.134402	4.134305
O	2.067241	6.201599	0.000002
O	2.067241	8.268799	2.067155
O	0.000006	6.201598	2.067156
Pu	2.067232	6.201603	6.201455
Ir	-0.000007	4.134405	8.268608
O	2.067235	6.201603	4.134305
O	2.067235	8.268802	6.201458
O	-0.000000	6.201602	6.201459
Pu	6.201698	2.067208	2.067143
Ir	4.134459	0.000010	4.134296
O	6.201700	2.067208	-0.000007
O	6.201700	4.134407	2.067146
O	4.134465	2.067207	2.067147
Pu	6.201691	2.067212	6.201446
Ir	4.134452	0.000014	8.268598
O	6.201694	2.067211	4.134295
O	6.201694	4.134411	6.201448
O	4.134459	2.067210	6.201449
Pu	6.201704	6.201606	2.067147
Ir	4.134465	4.134408	4.134299
O	6.201706	6.201605	-0.000004
O	6.201706	8.268805	2.067149
O	4.134471	6.201604	2.067150
Pu	6.201697	6.201609	6.201449
Ir	4.134458	4.134411	8.268602
O	6.201700	6.201609	4.134299
O	6.201700	8.268808	6.201451
O	4.134465	6.201608	6.201453
