40

Fe	1.866926	1.866926	1.866926
N	0.000000	0.000000	0.000000
O	0.000000	1.866926	1.866926
O	1.866926	0.000000	1.866926
O	1.866926	1.866926	0.000000
Fe	1.866926	1.866926	5.600778
N	0.000000	0.000000	3.733852
O	0.000000	1.866926	5.600778
O	1.866926	0.000000	5.600778
O	1.866926	1.866926	3.733852
Fe	1.866926	5.600778	1.866926
N	0.000000	3.733852	0.000000
O	0.000000	5.600778	1.866926
O	1.866926	3.733852	1.866926
O	1.866926	5.600778	0.000000
Fe	1.866926	5.600778	5.600778
N	0.000000	3.733852	3.733852
O	0.000000	5.600778	5.600778
O	1.866926	3.733852	5.600778
O	1.866926	5.600778	3.733852
Fe	5.600778	1.866926	1.866926
N	3.733852	0.000000	0.000000
O	3.733852	1.866926	1.866926
O	5.600778	0.000000	1.866926
O	5.600778	1.866926	0.000000
Fe	5.600778	1.866926	5.600778
N	3.733852	0.000000	3.733852
O	3.733852	1.866926	5.600778
O	5.600778	0.000000	5.600778
O	5.600778	1.866926	3.733852
Fe	5.600778	5.600778	1.866926
N	3.733852	3.733852	0.000000
O	3.733852	5.600778	1.866926
O	5.600778	3.733852	1.866926
O	5.600778	5.600778	0.000000
Fe	5.600778	5.600778	5.600778
N	3.733852	3.733852	3.733852
O	3.733852	5.600778	5.600778
O	5.600778	3.733852	5.600778
O	5.600778	5.600778	3.733852
