112

O	3.760163	-1.190049	-1.190049
O	-1.190481	1.190049	-3.760314
O	1.190481	-1.190049	-3.760314
O	1.284841	1.285133	-1.285133
O	6.141124	1.190049	-1.190049
O	1.284841	3.665230	-3.665230
O	3.665803	3.665230	-1.285133
O	3.665803	1.285133	-3.665230
Tc	0.000000	0.000000	0.000000
Tc	2.475322	-2.475181	-2.475181
Th	-1.237661	-1.237591	-3.712772
Th	3.712983	1.237591	-1.237591
Th	6.188305	-1.237591	-1.237591
Th	1.237661	1.237591	-3.712772
O	8.710807	3.760314	-1.190049
O	3.760163	6.140411	-3.760314
O	6.141124	3.760314	-3.760314
O	6.235485	6.235495	-1.285133
O	11.091768	6.140411	-1.190049
O	6.235485	8.615592	-3.665230
O	8.616446	8.615592	-1.285133
O	8.616446	6.235495	-3.665230
Tc	4.950644	4.950363	0.000000
Tc	7.425966	2.475181	-2.475181
Th	3.712983	3.712772	-3.712772
Th	8.663626	6.187953	-1.237591
Th	11.138948	3.712772	-1.237591
Th	6.188305	6.187953	-3.712772
O	-1.190481	-1.190049	-6.140411
O	-6.141124	1.190049	-8.710676
O	-3.760163	-1.190049	-8.710676
O	-3.665803	1.285133	-6.235495
O	1.190481	1.190049	-6.140411
O	-3.665803	3.665230	-8.615592
O	-1.284841	3.665230	-6.235495
O	-1.284841	1.285133	-8.615592
Tc	-4.950644	0.000000	-4.950363
Tc	-2.475322	-2.475181	-7.425544
Th	-6.188305	-1.237591	-8.663134
Th	-1.237661	1.237591	-6.187953
Th	1.237661	-1.237591	-6.187953
Th	-3.712983	1.237591	-8.663134
O	3.760163	3.760314	-6.140411
O	-1.190481	6.140411	-8.710676
O	1.190481	3.760314	-8.710676
O	1.284841	6.235495	-6.235495
O	6.141124	6.140411	-6.140411
O	1.284841	8.615592	-8.615592
O	3.665803	8.615592	-6.235495
O	3.665803	6.235495	-8.615592
Tc	0.000000	4.950363	-4.950363
Tc	2.475322	2.475181	-7.425544
Th	-1.237661	3.712772	-8.663134
Th	3.712983	6.187953	-6.187953
Th	6.188305	3.712772	-6.187953
Th	1.237661	6.187953	-8.663134
O	8.710807	-6.140411	-1.190049
O	3.760163	-3.760314	-3.760314
O	6.141124	-6.140411	-3.760314
O	6.235485	-3.665230	-1.285133
O	11.091768	-3.760314	-1.190049
O	6.235485	-1.285133	-3.665230
O	8.616446	-1.285133	-1.285133
O	8.616446	-3.665230	-3.665230
Tc	4.950644	-4.950363	0.000000
Tc	7.425966	-7.425544	-2.475181
Th	3.712983	-6.187953	-3.712772
Th	8.663626	-3.712772	-1.237591
Th	11.138948	-6.187953	-1.237591
Th	6.188305	-3.712772	-3.712772
O	13.661450	-1.190049	-1.190049
O	8.710807	1.190049	-3.760314
O	11.091768	-1.190049	-3.760314
O	11.186129	1.285133	-1.285133
O	16.042412	1.190049	-1.190049
O	11.186129	3.665230	-3.665230
O	13.567090	3.665230	-1.285133
O	13.567090	1.285133	-3.665230
Tc	9.901287	0.000000	0.000000
Tc	12.376609	-2.475181	-2.475181
Th	8.663626	-1.237591	-3.712772
Th	13.614270	1.237591	-1.237591
Th	16.089592	-1.237591	-1.237591
Th	11.138948	1.237591	-3.712772
O	3.760163	-6.140411	-6.140411
O	-1.190481	-3.760314	-8.710676
O	1.190481	-6.140411	-8.710676
O	1.284841	-3.665230	-6.235495
O	6.141124	-3.760314	-6.140411
O	1.284841	-1.285133	-8.615592
O	3.665803	-1.285133	-6.235495
O	3.665803	-3.665230	-8.615592
Tc	0.000000	-4.950363	-4.950363
Tc	2.475322	-7.425544	-7.425544
Th	-1.237661	-6.187953	-8.663134
Th	3.712983	-3.712772	-6.187953
Th	6.188305	-6.187953	-6.187953
Th	1.237661	-3.712772	-8.663134
O	8.710807	-1.190049	-6.140411
O	3.760163	1.190049	-8.710676
O	6.141124	-1.190049	-8.710676
O	6.235485	1.285133	-6.235495
O	11.091768	1.190049	-6.140411
O	6.235485	3.665230	-8.615592
O	8.616446	3.665230	-6.235495
O	8.616446	1.285133	-8.615592
Tc	4.950644	0.000000	-4.950363
Tc	7.425966	-2.475181	-7.425544
Th	3.712983	-1.237591	-8.663134
Th	8.663626	1.237591	-6.187953
Th	11.138948	-1.237591	-6.187953
Th	6.188305	1.237591	-8.663134
