40

O	0.000000	2.549452	2.549452
O	2.549452	0.000000	2.549452
O	2.549452	2.549452	0.000000
Rb	2.549452	2.549452	2.549452
Zn	0.000000	0.000000	0.000000
O	0.000000	2.549452	7.648355
O	2.549452	0.000000	7.648355
O	2.549452	2.549452	5.098903
Rb	2.549452	2.549452	7.648355
Zn	0.000000	0.000000	5.098903
O	0.000000	7.648355	2.549452
O	2.549452	5.098903	2.549452
O	2.549452	7.648355	0.000000
Rb	2.549452	7.648355	2.549452
Zn	0.000000	5.098903	0.000000
O	0.000000	7.648355	7.648355
O	2.549452	5.098903	7.648355
O	2.549452	7.648355	5.098903
Rb	2.549452	7.648355	7.648355
Zn	0.000000	5.098903	5.098903
O	5.098903	2.549452	2.549452
O	7.648355	0.000000	2.549452
O	7.648355	2.549452	0.000000
Rb	7.648355	2.549452	2.549452
Zn	5.098903	0.000000	0.000000
O	5.098903	2.549452	7.648355
O	7.648355	0.000000	7.648355
O	7.648355	2.549452	5.098903
Rb	7.648355	2.549452	7.648355
Zn	5.098903	0.000000	5.098903
O	5.098903	7.648355	2.549452
O	7.648355	5.098903	2.549452
O	7.648355	7.648355	0.000000
Rb	7.648355	7.648355	2.549452
Zn	5.098903	5.098903	0.000000
O	5.098903	7.648355	7.648355
O	7.648355	5.098903	7.648355
O	7.648355	7.648355	5.098903
Rb	7.648355	7.648355	7.648355
Zn	5.098903	5.098903	5.098903
