40

Nd	0.000000	0.000000	0.000000
O	1.916099	1.916099	0.000000
O	0.000000	1.916099	1.916099
O	1.916099	0.000000	1.916099
V	1.901099	1.916099	1.916099
Nd	0.000000	0.000000	3.832199
O	1.916099	1.916099	3.832199
O	0.000000	1.916099	5.748298
O	1.916099	0.000000	5.748298
V	1.901099	1.916099	5.748298
Nd	0.000000	3.832199	0.000000
O	1.916099	5.748298	0.000000
O	0.000000	5.748298	1.916099
O	1.916099	3.832199	1.916099
V	1.901099	5.748298	1.916099
Nd	0.000000	3.832199	3.832199
O	1.916099	5.748298	3.832199
O	0.000000	5.748298	5.748298
O	1.916099	3.832199	5.748298
V	1.901099	5.748298	5.748298
Nd	3.832199	0.000000	0.000000
O	5.748298	1.916099	0.000000
O	3.832199	1.916099	1.916099
O	5.748298	0.000000	1.916099
V	5.733298	1.916099	1.916099
Nd	3.832199	0.000000	3.832199
O	5.748298	1.916099	3.832199
O	3.832199	1.916099	5.748298
O	5.748298	0.000000	5.748298
V	5.733298	1.916099	5.748298
Nd	3.832199	3.832199	0.000000
O	5.748298	5.748298	0.000000
O	3.832199	5.748298	1.916099
O	5.748298	3.832199	1.916099
V	5.733298	5.748298	1.916099
Nd	3.832199	3.832199	3.832199
O	5.748298	5.748298	3.832199
O	3.832199	5.748298	5.748298
O	5.748298	3.832199	5.748298
V	5.733298	5.748298	5.748298
