40

O	2.176788	2.176788	0.000000
O	0.000000	2.176788	2.176788
O	2.176788	0.000000	2.176788
Pu	2.176788	2.176788	2.176788
Tb	0.000000	0.000000	0.000000
O	2.176788	2.176788	4.353567
O	0.000000	2.176788	6.530356
O	2.176788	0.000000	6.530356
Pu	2.176788	2.176788	6.530356
Tb	0.000000	0.000000	4.353567
O	2.176788	6.530356	0.000000
O	0.000000	6.530356	2.176788
O	2.176788	4.353567	2.176788
Pu	2.176788	6.530356	2.176788
Tb	0.000000	4.353567	0.000000
O	2.176788	6.530356	4.353567
O	0.000000	6.530356	6.530356
O	2.176788	4.353567	6.530356
Pu	2.176788	6.530356	6.530356
Tb	0.000000	4.353567	4.353567
O	6.530356	2.176788	0.000000
O	4.353567	2.176788	2.176788
O	6.530356	0.000000	2.176788
Pu	6.530356	2.176788	2.176788
Tb	4.353567	0.000000	0.000000
O	6.530356	2.176788	4.353567
O	4.353567	2.176788	6.530356
O	6.530356	0.000000	6.530356
Pu	6.530356	2.176788	6.530356
Tb	4.353567	0.000000	4.353567
O	6.530356	6.530356	0.000000
O	4.353567	6.530356	2.176788
O	6.530356	4.353567	2.176788
Pu	6.530356	6.530356	2.176788
Tb	4.353567	4.353567	0.000000
O	6.530356	6.530356	4.353567
O	4.353567	6.530356	6.530356
O	6.530356	4.353567	6.530356
Pu	6.530356	6.530356	6.530356
Tb	4.353567	4.353567	4.353567
