112

O	-0.947523	0.947266	-3.526260
O	3.524941	-0.947266	-0.947266
O	0.947523	-0.947266	-3.526260
O	1.288704	1.289497	-1.289497
O	5.419977	0.947266	-0.947266
O	1.288704	3.184039	-3.184039
O	3.183750	3.184039	-1.289497
O	3.183750	1.289497	-3.184039
Sn	0.000000	0.000000	0.000000
Sn	2.236227	-2.236763	-2.236763
Ti	-1.118114	-1.118387	-3.355150
Ti	5.590568	-1.118386	-1.118386
Ti	1.118114	1.118387	-3.355150
Ti	3.354341	1.118386	-1.118386
O	3.524932	5.420798	-3.526260
O	7.997397	3.526265	-0.947266
O	5.419978	3.526265	-3.526260
O	5.761159	5.763029	-1.289497
O	9.892433	5.420798	-0.947266
O	5.761159	7.657571	-3.184039
O	7.656205	7.657571	-1.289497
O	7.656205	5.763029	-3.184039
Sn	4.472455	4.473532	0.000000
Sn	6.708682	2.236769	-2.236763
Ti	3.354342	3.355145	-3.355150
Ti	10.063023	3.355145	-1.118386
Ti	5.590569	5.591918	-3.355150
Ti	7.826796	5.591918	-1.118386
O	-5.419978	0.947266	-7.999792
O	-0.947514	-0.947266	-5.420798
O	-3.524932	-0.947266	-7.999792
O	-3.183751	1.289497	-5.763029
O	0.947522	0.947266	-5.420798
O	-3.183751	3.184039	-7.657571
O	-1.288705	3.184039	-5.763029
O	-1.288705	1.289497	-7.657571
Sn	-4.472455	0.000000	-4.473532
Sn	-2.236228	-2.236763	-6.710295
Ti	-5.590569	-1.118387	-7.828681
Ti	1.118113	-1.118386	-5.591918
Ti	-3.354342	1.118387	-7.828681
Ti	-1.118114	1.118386	-5.591918
O	-0.947523	5.420798	-7.999792
O	3.524941	3.526265	-5.420798
O	0.947523	3.526265	-7.999792
O	1.288704	5.763029	-5.763029
O	5.419977	5.420798	-5.420798
O	1.288704	7.657571	-7.657571
O	3.183750	7.657571	-5.763029
O	3.183750	5.763029	-7.657571
Sn	0.000000	4.473532	-4.473532
Sn	2.236227	2.236769	-6.710295
Ti	-1.118114	3.355145	-7.828681
Ti	5.590568	3.355145	-5.591918
Ti	1.118114	5.591918	-7.828681
Ti	3.354341	5.591918	-5.591918
O	3.524932	-3.526265	-3.526260
O	7.997397	-5.420798	-0.947266
O	5.419978	-5.420798	-3.526260
O	5.761159	-3.184035	-1.289497
O	9.892433	-3.526265	-0.947266
O	5.761159	-1.289492	-3.184039
O	7.656205	-1.289492	-1.289497
O	7.656205	-3.184035	-3.184039
Sn	4.472455	-4.473532	0.000000
Sn	6.708682	-6.710295	-2.236763
Ti	3.354342	-5.591918	-3.355150
Ti	10.063023	-5.591918	-1.118386
Ti	5.590569	-3.355145	-3.355150
Ti	7.826796	-3.355145	-1.118386
O	7.997387	0.947266	-3.526260
O	12.469852	-0.947266	-0.947266
O	9.892433	-0.947266	-3.526260
O	10.233615	1.289497	-1.289497
O	14.364888	0.947266	-0.947266
O	10.233615	3.184039	-3.184039
O	12.128660	3.184039	-1.289497
O	12.128660	1.289497	-3.184039
Sn	8.944910	0.000000	0.000000
Sn	11.181137	-2.236763	-2.236763
Ti	7.826797	-1.118387	-3.355150
Ti	14.535478	-1.118386	-1.118386
Ti	10.063024	1.118387	-3.355150
Ti	12.299251	1.118386	-1.118386
O	-0.947523	-3.526265	-7.999792
O	3.524941	-5.420798	-5.420798
O	0.947523	-5.420798	-7.999792
O	1.288704	-3.184035	-5.763029
O	5.419977	-3.526265	-5.420798
O	1.288704	-1.289492	-7.657571
O	3.183750	-1.289492	-5.763029
O	3.183750	-3.184035	-7.657571
Sn	0.000000	-4.473532	-4.473532
Sn	2.236227	-6.710295	-6.710295
Ti	-1.118114	-5.591918	-7.828681
Ti	5.590568	-5.591918	-5.591918
Ti	1.118114	-3.355145	-7.828681
Ti	3.354341	-3.355145	-5.591918
O	3.524932	0.947266	-7.999792
O	7.997397	-0.947266	-5.420798
O	5.419978	-0.947266	-7.999792
O	5.761159	1.289497	-5.763029
O	9.892433	0.947266	-5.420798
O	5.761159	3.184039	-7.657571
O	7.656205	3.184039	-5.763029
O	7.656205	1.289497	-7.657571
Sn	4.472455	0.000000	-4.473532
Sn	6.708682	-2.236763	-6.710295
Ti	3.354342	-1.118387	-7.828681
Ti	10.063023	-1.118386	-5.591918
Ti	5.590569	1.118387	-7.828681
Ti	7.826796	1.118386	-5.591918
