40

O	1.922278	1.922278	0.000000
O	0.000000	1.922278	1.922278
O	1.922278	0.000000	1.922278
Pr	0.000000	0.000000	0.000000
V	1.907278	1.922278	1.922278
O	1.922278	1.922278	3.844556
O	0.000000	1.922278	5.766834
O	1.922278	0.000000	5.766834
Pr	0.000000	0.000000	3.844556
V	1.907278	1.922278	5.766834
O	1.922278	5.766834	0.000000
O	0.000000	5.766834	1.922278
O	1.922278	3.844556	1.922278
Pr	0.000000	3.844556	0.000000
V	1.907278	5.766834	1.922278
O	1.922278	5.766834	3.844556
O	0.000000	5.766834	5.766834
O	1.922278	3.844556	5.766834
Pr	0.000000	3.844556	3.844556
V	1.907278	5.766834	5.766834
O	5.766834	1.922278	0.000000
O	3.844556	1.922278	1.922278
O	5.766834	0.000000	1.922278
Pr	3.844556	0.000000	0.000000
V	5.751834	1.922278	1.922278
O	5.766834	1.922278	3.844556
O	3.844556	1.922278	5.766834
O	5.766834	0.000000	5.766834
Pr	3.844556	0.000000	3.844556
V	5.751834	1.922278	5.766834
O	5.766834	5.766834	0.000000
O	3.844556	5.766834	1.922278
O	5.766834	3.844556	1.922278
Pr	3.844556	3.844556	0.000000
V	5.751834	5.766834	1.922278
O	5.766834	5.766834	3.844556
O	3.844556	5.766834	5.766834
O	5.766834	3.844556	5.766834
Pr	3.844556	3.844556	3.844556
V	5.751834	5.766834	5.766834
