40

O	1.954270	1.954270	0.000000
O	0.000000	1.954270	1.954270
O	1.954270	0.000000	1.954270
Pr_3	0.000000	0.000000	0.000000
V	1.954270	1.954270	1.954270
O	1.954270	1.954270	3.908539
O	0.000000	1.954270	5.862809
O	1.954270	0.000000	5.862809
Pr_3	0.000000	0.000000	3.908539
V	1.954270	1.954270	5.862809
O	1.954270	5.862809	0.000000
O	0.000000	5.862809	1.954270
O	1.954270	3.908539	1.954270
Pr_3	0.000000	3.908539	0.000000
V	1.954270	5.862809	1.954270
O	1.954270	5.862809	3.908539
O	0.000000	5.862809	5.862809
O	1.954270	3.908539	5.862809
Pr_3	0.000000	3.908539	3.908539
V	1.954270	5.862809	5.862809
O	5.862809	1.954270	0.000000
O	3.908539	1.954270	1.954270
O	5.862809	0.000000	1.954270
Pr_3	3.908539	0.000000	0.000000
V	5.862809	1.954270	1.954270
O	5.862809	1.954270	3.908539
O	3.908539	1.954270	5.862809
O	5.862809	0.000000	5.862809
Pr_3	3.908539	0.000000	3.908539
V	5.862809	1.954270	5.862809
O	5.862809	5.862809	0.000000
O	3.908539	5.862809	1.954270
O	5.862809	3.908539	1.954270
Pr_3	3.908539	3.908539	0.000000
V	5.862809	5.862809	1.954270
O	5.862809	5.862809	3.908539
O	3.908539	5.862809	5.862809
O	5.862809	3.908539	5.862809
Pr_3	3.908539	3.908539	3.908539
V	5.862809	5.862809	5.862809
