96

N	0.000000	0.000000	0.000000
N	2.847221	2.847221	0.000000
N	0.000000	2.847221	2.847221
Na	1.456115	1.391096	1.456115
Na	4.238317	1.391096	1.456115
Na	1.456115	4.303336	1.456115
Na	4.238317	4.303336	1.456115
Na	1.456115	1.391096	4.238317
Na	4.238317	1.391096	4.238317
Na	1.456115	4.303336	4.238317
Na	4.238317	4.303336	4.238317
O	2.847221	0.000000	2.847221
N	0.000000	0.000000	5.694433
N	2.847221	2.847221	5.694433
N	0.000000	2.847221	8.541654
Na	1.456115	1.391096	7.150548
Na	4.238317	1.391096	7.150548
Na	1.456115	4.303336	7.150548
Na	4.238317	4.303336	7.150548
Na	1.456115	1.391096	9.932750
Na	4.238317	1.391096	9.932750
Na	1.456115	4.303336	9.932750
Na	4.238317	4.303336	9.932750
O	2.847221	0.000000	8.541654
N	0.000000	5.694433	0.000000
N	2.847221	8.541654	0.000000
N	0.000000	8.541654	2.847221
Na	1.456115	7.085529	1.456115
Na	4.238317	7.085529	1.456115
Na	1.456115	9.997769	1.456115
Na	4.238317	9.997769	1.456115
Na	1.456115	7.085529	4.238317
Na	4.238317	7.085529	4.238317
Na	1.456115	9.997769	4.238317
Na	4.238317	9.997769	4.238317
O	2.847221	5.694433	2.847221
N	0.000000	5.694433	5.694433
N	2.847221	8.541654	5.694433
N	0.000000	8.541654	8.541654
Na	1.456115	7.085529	7.150548
Na	4.238317	7.085529	7.150548
Na	1.456115	9.997769	7.150548
Na	4.238317	9.997769	7.150548
Na	1.456115	7.085529	9.932750
Na	4.238317	7.085529	9.932750
Na	1.456115	9.997769	9.932750
Na	4.238317	9.997769	9.932750
O	2.847221	5.694433	8.541654
N	5.694433	0.000000	0.000000
N	8.541654	2.847221	0.000000
N	5.694433	2.847221	2.847221
Na	7.150548	1.391096	1.456115
Na	9.932750	1.391096	1.456115
Na	7.150548	4.303336	1.456115
Na	9.932750	4.303336	1.456115
Na	7.150548	1.391096	4.238317
Na	9.932750	1.391096	4.238317
Na	7.150548	4.303336	4.238317
Na	9.932750	4.303336	4.238317
O	8.541654	0.000000	2.847221
N	5.694433	0.000000	5.694433
N	8.541654	2.847221	5.694433
N	5.694433	2.847221	8.541654
Na	7.150548	1.391096	7.150548
Na	9.932750	1.391096	7.150548
Na	7.150548	4.303336	7.150548
Na	9.932750	4.303336	7.150548
Na	7.150548	1.391096	9.932750
Na	9.932750	1.391096	9.932750
Na	7.150548	4.303336	9.932750
Na	9.932750	4.303336	9.932750
O	8.541654	0.000000	8.541654
N	5.694433	5.694433	0.000000
N	8.541654	8.541654	0.000000
N	5.694433	8.541654	2.847221
Na	7.150548	7.085529	1.456115
Na	9.932750	7.085529	1.456115
Na	7.150548	9.997769	1.456115
Na	9.932750	9.997769	1.456115
Na	7.150548	7.085529	4.238317
Na	9.932750	7.085529	4.238317
Na	7.150548	9.997769	4.238317
Na	9.932750	9.997769	4.238317
O	8.541654	5.694433	2.847221
N	5.694433	5.694433	5.694433
N	8.541654	8.541654	5.694433
N	5.694433	8.541654	8.541654
Na	7.150548	7.085529	7.150548
Na	9.932750	7.085529	7.150548
Na	7.150548	9.997769	7.150548
Na	9.932750	9.997769	7.150548
Na	7.150548	7.085529	9.932750
Na	9.932750	7.085529	9.932750
Na	7.150548	9.997769	9.932750
Na	9.932750	9.997769	9.932750
O	8.541654	5.694433	8.541654
