112

O	4.146966	-0.982912	-0.982912
O	-0.967327	0.982912	-4.062896
O	0.967327	-0.982912	-4.062896
O	1.589820	1.539992	-1.539992
O	6.081620	0.982912	-0.982912
O	1.589820	3.505816	-3.505816
O	3.524474	3.505816	-1.539992
O	3.524474	1.539992	-3.505816
Sb	0.000000	0.000000	0.000000
Sb	2.557147	-2.522904	-2.522904
U	-1.278573	-1.261452	-3.784356
U	3.835720	1.261452	-1.261452
U	6.392867	-1.261452	-1.261452
U	1.278573	1.261452	-3.784356
O	9.261259	4.062896	-0.982912
O	4.146966	6.028720	-4.062896
O	6.081620	4.062896	-4.062896
O	6.704113	6.585800	-1.539992
O	11.195913	6.028720	-0.982912
O	6.704113	8.551624	-3.505816
O	8.638767	8.551624	-1.539992
O	8.638767	6.585800	-3.505816
Sb	5.114293	5.045808	0.000000
Sb	7.671440	2.522904	-2.522904
U	3.835720	3.784356	-3.784356
U	8.950013	6.307260	-1.261452
U	11.507160	3.784356	-1.261452
U	6.392867	6.307260	-3.784356
O	-0.967327	-0.982912	-6.028720
O	-6.081620	0.982912	-9.108704
O	-4.146966	-0.982912	-9.108704
O	-3.524474	1.539992	-6.585800
O	0.967327	0.982912	-6.028720
O	-3.524474	3.505816	-8.551624
O	-1.589820	3.505816	-6.585800
O	-1.589820	1.539992	-8.551624
Sb	-5.114293	0.000000	-5.045808
Sb	-2.557147	-2.522904	-7.568712
U	-6.392867	-1.261452	-8.830164
U	-1.278573	1.261452	-6.307260
U	1.278573	-1.261452	-6.307260
U	-3.835720	1.261452	-8.830164
O	4.146966	4.062896	-6.028720
O	-0.967327	6.028720	-9.108704
O	0.967327	4.062896	-9.108704
O	1.589820	6.585800	-6.585800
O	6.081620	6.028720	-6.028720
O	1.589820	8.551624	-8.551624
O	3.524474	8.551624	-6.585800
O	3.524474	6.585800	-8.551624
Sb	0.000000	5.045808	-5.045808
Sb	2.557147	2.522904	-7.568712
U	-1.278573	3.784356	-8.830164
U	3.835720	6.307260	-6.307260
U	6.392867	3.784356	-6.307260
U	1.278573	6.307260	-8.830164
O	9.261259	-6.028720	-0.982912
O	4.146966	-4.062896	-4.062896
O	6.081620	-6.028720	-4.062896
O	6.704113	-3.505816	-1.539992
O	11.195913	-4.062896	-0.982912
O	6.704113	-1.539992	-3.505816
O	8.638767	-1.539992	-1.539992
O	8.638767	-3.505816	-3.505816
Sb	5.114293	-5.045808	0.000000
Sb	7.671440	-7.568712	-2.522904
U	3.835720	-6.307260	-3.784356
U	8.950013	-3.784356	-1.261452
U	11.507160	-6.307260	-1.261452
U	6.392867	-3.784356	-3.784356
O	14.375553	-0.982912	-0.982912
O	9.261259	0.982912	-4.062896
O	11.195914	-0.982912	-4.062896
O	11.818406	1.539992	-1.539992
O	16.310207	0.982912	-0.982912
O	11.818406	3.505816	-3.505816
O	13.753060	3.505816	-1.539992
O	13.753060	1.539992	-3.505816
Sb	10.228586	0.000000	0.000000
Sb	12.785733	-2.522904	-2.522904
U	8.950013	-1.261452	-3.784356
U	14.064306	1.261452	-1.261452
U	16.621453	-1.261452	-1.261452
U	11.507160	1.261452	-3.784356
O	4.146966	-6.028720	-6.028720
O	-0.967327	-4.062896	-9.108704
O	0.967327	-6.028720	-9.108704
O	1.589820	-3.505816	-6.585800
O	6.081620	-4.062896	-6.028720
O	1.589820	-1.539992	-8.551624
O	3.524474	-1.539992	-6.585800
O	3.524474	-3.505816	-8.551624
Sb	0.000000	-5.045808	-5.045808
Sb	2.557147	-7.568712	-7.568712
U	-1.278573	-6.307260	-8.830164
U	3.835720	-3.784356	-6.307260
U	6.392867	-6.307260	-6.307260
U	1.278573	-3.784356	-8.830164
O	9.261259	-0.982912	-6.028720
O	4.146966	0.982912	-9.108704
O	6.081620	-0.982912	-9.108704
O	6.704113	1.539992	-6.585800
O	11.195913	0.982912	-6.028720
O	6.704113	3.505816	-8.551624
O	8.638767	3.505816	-6.585800
O	8.638767	1.539992	-8.551624
Sb	5.114293	0.000000	-5.045808
Sb	7.671440	-2.522904	-7.568712
U	3.835720	-1.261452	-8.830164
U	8.950013	1.261452	-6.307260
U	11.507160	-1.261452	-6.307260
U	6.392867	1.261452	-8.830164
