112

Dy	0.000000	0.000000	0.000000
Dy	2.467513	-2.468070	-2.468070
O	3.705900	-1.228805	-1.228805
O	-1.229127	1.228805	-3.707335
O	1.229127	-1.228805	-3.707335
O	1.238387	1.239265	-1.239265
O	6.164153	1.228805	-1.228805
O	1.238387	3.696875	-3.696875
O	3.696640	3.696875	-1.239265
O	3.696640	1.239265	-3.696875
U	-1.233757	-1.234035	-3.702105
U	3.701270	1.234035	-1.234035
U	6.168783	-1.234035	-1.234035
U	1.233757	1.234035	-3.702105
Dy	4.935027	4.936140	0.000000
Dy	7.402540	2.468070	-2.468070
O	8.640927	3.707335	-1.228805
O	3.705900	6.164946	-3.707335
O	6.164153	3.707335	-3.707335
O	6.173414	6.175405	-1.239265
O	11.099180	6.164946	-1.228805
O	6.173414	8.633016	-3.696875
O	8.631667	8.633016	-1.239265
O	8.631667	6.175405	-3.696875
U	3.701270	3.702105	-3.702105
U	8.636297	6.170175	-1.234035
U	11.103810	3.702105	-1.234035
U	6.168783	6.170175	-3.702105
Dy	-4.935027	0.000000	-4.936140
Dy	-2.467513	-2.468070	-7.404210
O	-1.229127	-1.228805	-6.164946
O	-6.164153	1.228805	-8.643475
O	-3.705900	-1.228805	-8.643475
O	-3.696640	1.239265	-6.175405
O	1.229127	1.228805	-6.164946
O	-3.696640	3.696875	-8.633016
O	-1.238387	3.696875	-6.175405
O	-1.238387	1.239265	-8.633016
U	-6.168783	-1.234035	-8.638246
U	-1.233757	1.234035	-6.170175
U	1.233757	-1.234035	-6.170175
U	-3.701270	1.234035	-8.638246
Dy	0.000000	4.936140	-4.936140
Dy	2.467513	2.468070	-7.404210
O	3.705900	3.707335	-6.164946
O	-1.229127	6.164946	-8.643475
O	1.229127	3.707335	-8.643475
O	1.238387	6.175405	-6.175405
O	6.164153	6.164946	-6.164946
O	1.238387	8.633016	-8.633016
O	3.696640	8.633016	-6.175405
O	3.696640	6.175405	-8.633016
U	-1.233757	3.702105	-8.638246
U	3.701270	6.170175	-6.170175
U	6.168783	3.702105	-6.170175
U	1.233757	6.170175	-8.638246
Dy	4.935027	-4.936140	0.000000
Dy	7.402540	-7.404210	-2.468070
O	8.640927	-6.164946	-1.228805
O	3.705900	-3.707335	-3.707335
O	6.164153	-6.164946	-3.707335
O	6.173414	-3.696875	-1.239265
O	11.099180	-3.707335	-1.228805
O	6.173414	-1.239265	-3.696875
O	8.631667	-1.239265	-1.239265
O	8.631667	-3.696875	-3.696875
U	3.701270	-6.170175	-3.702105
U	8.636297	-3.702105	-1.234035
U	11.103810	-6.170175	-1.234035
U	6.168783	-3.702105	-3.702105
Dy	9.870054	0.000000	0.000000
Dy	12.337567	-2.468070	-2.468070
O	13.575954	-1.228805	-1.228805
O	8.640927	1.228805	-3.707335
O	11.099180	-1.228805	-3.707335
O	11.108440	1.239265	-1.239265
O	16.034207	1.228805	-1.228805
O	11.108440	3.696875	-3.696875
O	13.566694	3.696875	-1.239265
O	13.566694	1.239265	-3.696875
U	8.636297	-1.234035	-3.702105
U	13.571324	1.234035	-1.234035
U	16.038837	-1.234035	-1.234035
U	11.103810	1.234035	-3.702105
Dy	0.000000	-4.936140	-4.936140
Dy	2.467513	-7.404210	-7.404210
O	3.705900	-6.164946	-6.164946
O	-1.229127	-3.707335	-8.643475
O	1.229127	-6.164946	-8.643475
O	1.238387	-3.696875	-6.175405
O	6.164153	-3.707335	-6.164946
O	1.238387	-1.239265	-8.633016
O	3.696640	-1.239265	-6.175405
O	3.696640	-3.696875	-8.633016
U	-1.233757	-6.170175	-8.638246
U	3.701270	-3.702105	-6.170175
U	6.168783	-6.170175	-6.170175
U	1.233757	-3.702105	-8.638246
Dy	4.935027	0.000000	-4.936140
Dy	7.402540	-2.468070	-7.404210
O	8.640927	-1.228805	-6.164946
O	3.705900	1.228805	-8.643475
O	6.164153	-1.228805	-8.643475
O	6.173414	1.239265	-6.175405
O	11.099180	1.228805	-6.164946
O	6.173414	3.696875	-8.633016
O	8.631667	3.696875	-6.175405
O	8.631667	1.239265	-8.633016
U	3.701270	-1.234035	-8.638246
U	8.636297	1.234035	-6.170175
U	11.103810	-1.234035	-6.170175
U	6.168783	1.234035	-8.638246
