40

Fe	1.853010	1.853010	1.853010
Ni	0.000000	0.000000	0.000000
O	1.853010	0.000000	1.853010
O	0.000000	1.853010	1.853010
O	1.853010	1.853010	0.000000
Fe	1.853010	1.853010	5.559039
Ni	0.000000	0.000000	3.706029
O	1.853010	0.000000	5.559039
O	0.000000	1.853010	5.559039
O	1.853010	1.853010	3.706029
Fe	1.853010	5.559039	1.853010
Ni	0.000000	3.706029	0.000000
O	1.853010	3.706029	1.853010
O	0.000000	5.559039	1.853010
O	1.853010	5.559039	0.000000
Fe	1.853010	5.559039	5.559039
Ni	0.000000	3.706029	3.706029
O	1.853010	3.706029	5.559039
O	0.000000	5.559039	5.559039
O	1.853010	5.559039	3.706029
Fe	5.559039	1.853010	1.853010
Ni	3.706029	0.000000	0.000000
O	5.559039	0.000000	1.853010
O	3.706029	1.853010	1.853010
O	5.559039	1.853010	0.000000
Fe	5.559039	1.853010	5.559039
Ni	3.706029	0.000000	3.706029
O	5.559039	0.000000	5.559039
O	3.706029	1.853010	5.559039
O	5.559039	1.853010	3.706029
Fe	5.559039	5.559039	1.853010
Ni	3.706029	3.706029	0.000000
O	5.559039	3.706029	1.853010
O	3.706029	5.559039	1.853010
O	5.559039	5.559039	0.000000
Fe	5.559039	5.559039	5.559039
Ni	3.706029	3.706029	3.706029
O	5.559039	3.706029	5.559039
O	3.706029	5.559039	5.559039
O	5.559039	5.559039	3.706029
