40

Al	0.000000	0.000000	0.000000
O	0.000000	2.072785	2.072785
O	2.072785	0.000000	2.072785
O	2.072785	2.072785	0.000000
Zr	2.072785	2.072785	2.072785
Al	0.000000	0.000000	4.145570
O	0.000000	2.072785	6.218355
O	2.072785	0.000000	6.218355
O	2.072785	2.072785	4.145570
Zr	2.072785	2.072785	6.218355
Al	0.000000	4.145570	0.000000
O	0.000000	6.218355	2.072785
O	2.072785	4.145570	2.072785
O	2.072785	6.218355	0.000000
Zr	2.072785	6.218355	2.072785
Al	0.000000	4.145570	4.145570
O	0.000000	6.218355	6.218355
O	2.072785	4.145570	6.218355
O	2.072785	6.218355	4.145570
Zr	2.072785	6.218355	6.218355
Al	4.145570	0.000000	0.000000
O	4.145570	2.072785	2.072785
O	6.218355	0.000000	2.072785
O	6.218355	2.072785	0.000000
Zr	6.218355	2.072785	2.072785
Al	4.145570	0.000000	4.145570
O	4.145570	2.072785	6.218355
O	6.218355	0.000000	6.218355
O	6.218355	2.072785	4.145570
Zr	6.218355	2.072785	6.218355
Al	4.145570	4.145570	0.000000
O	4.145570	6.218355	2.072785
O	6.218355	4.145570	2.072785
O	6.218355	6.218355	0.000000
Zr	6.218355	6.218355	2.072785
Al	4.145570	4.145570	4.145570
O	4.145570	6.218355	6.218355
O	6.218355	4.145570	6.218355
O	6.218355	6.218355	4.145570
Zr	6.218355	6.218355	6.218355
