40

Cd	0.000000	0.000000	0.000000
O	0.000000	0.000000	2.013767
O	2.013767	0.000000	0.000000
O	0.000000	2.013767	0.000000
Ti	1.998767	2.013767	2.013767
Cd	0.000000	0.000000	4.027533
O	0.000000	0.000000	6.041300
O	2.013767	0.000000	4.027533
O	0.000000	2.013767	4.027533
Ti	1.998767	2.013767	6.041300
Cd	0.000000	4.027533	0.000000
O	0.000000	4.027533	2.013767
O	2.013767	4.027533	0.000000
O	0.000000	6.041300	0.000000
Ti	1.998767	6.041300	2.013767
Cd	0.000000	4.027533	4.027533
O	0.000000	4.027533	6.041300
O	2.013767	4.027533	4.027533
O	0.000000	6.041300	4.027533
Ti	1.998767	6.041300	6.041300
Cd	4.027533	0.000000	0.000000
O	4.027533	0.000000	2.013767
O	6.041300	0.000000	0.000000
O	4.027533	2.013767	0.000000
Ti	6.026300	2.013767	2.013767
Cd	4.027533	0.000000	4.027533
O	4.027533	0.000000	6.041300
O	6.041300	0.000000	4.027533
O	4.027533	2.013767	4.027533
Ti	6.026300	2.013767	6.041300
Cd	4.027533	4.027533	0.000000
O	4.027533	4.027533	2.013767
O	6.041300	4.027533	0.000000
O	4.027533	6.041300	0.000000
Ti	6.026300	6.041300	2.013767
Cd	4.027533	4.027533	4.027533
O	4.027533	4.027533	6.041300
O	6.041300	4.027533	4.027533
O	4.027533	6.041300	4.027533
Ti	6.026300	6.041300	6.041300
