40

O	1.754540	1.754540	0.000000
O	0.000000	1.754540	1.754540
O	1.754540	0.000000	1.754540
Si	1.754540	1.754540	1.754540
Zn	0.000000	0.000000	0.000000
O	1.754540	1.754540	3.509076
O	0.000000	1.754540	5.263616
O	1.754540	0.000000	5.263616
Si	1.754540	1.754540	5.263616
Zn	0.000000	0.000000	3.509076
O	1.754540	5.263616	0.000000
O	0.000000	5.263616	1.754540
O	1.754540	3.509076	1.754540
Si	1.754540	5.263616	1.754540
Zn	0.000000	3.509076	0.000000
O	1.754540	5.263616	3.509076
O	0.000000	5.263616	5.263616
O	1.754540	3.509076	5.263616
Si	1.754540	5.263616	5.263616
Zn	0.000000	3.509076	3.509076
O	5.263616	1.754540	0.000000
O	3.509076	1.754540	1.754540
O	5.263616	0.000000	1.754540
Si	5.263616	1.754540	1.754540
Zn	3.509076	0.000000	0.000000
O	5.263616	1.754540	3.509076
O	3.509076	1.754540	5.263616
O	5.263616	0.000000	5.263616
Si	5.263616	1.754540	5.263616
Zn	3.509076	0.000000	3.509076
O	5.263616	5.263616	0.000000
O	3.509076	5.263616	1.754540
O	5.263616	3.509076	1.754540
Si	5.263616	5.263616	1.754540
Zn	3.509076	3.509076	0.000000
O	5.263616	5.263616	3.509076
O	3.509076	5.263616	5.263616
O	5.263616	3.509076	5.263616
Si	5.263616	5.263616	5.263616
Zn	3.509076	3.509076	3.509076
