40

Bi	2.121364	2.121364	2.121364
Ga	0.000000	0.000000	0.000000
O	0.000000	2.121364	2.121364
O	2.121364	0.000000	2.121364
O	2.121364	2.121364	0.000000
Bi	2.121364	2.121364	6.364092
Ga	0.000000	0.000000	4.242728
O	0.000000	2.121364	6.364092
O	2.121364	0.000000	6.364092
O	2.121364	2.121364	4.242728
Bi	2.121364	6.364092	2.121364
Ga	0.000000	4.242728	0.000000
O	0.000000	6.364092	2.121364
O	2.121364	4.242728	2.121364
O	2.121364	6.364092	0.000000
Bi	2.121364	6.364092	6.364092
Ga	0.000000	4.242728	4.242728
O	0.000000	6.364092	6.364092
O	2.121364	4.242728	6.364092
O	2.121364	6.364092	4.242728
Bi	6.364092	2.121364	2.121364
Ga	4.242728	0.000000	0.000000
O	4.242728	2.121364	2.121364
O	6.364092	0.000000	2.121364
O	6.364092	2.121364	0.000000
Bi	6.364092	2.121364	6.364092
Ga	4.242728	0.000000	4.242728
O	4.242728	2.121364	6.364092
O	6.364092	0.000000	6.364092
O	6.364092	2.121364	4.242728
Bi	6.364092	6.364092	2.121364
Ga	4.242728	4.242728	0.000000
O	4.242728	6.364092	2.121364
O	6.364092	4.242728	2.121364
O	6.364092	6.364092	0.000000
Bi	6.364092	6.364092	6.364092
Ga	4.242728	4.242728	4.242728
O	4.242728	6.364092	6.364092
O	6.364092	4.242728	6.364092
O	6.364092	6.364092	4.242728
