40

Li	1.821165	1.821165	1.821165
Na	0.000000	0.000000	0.000000
O	1.821165	1.821165	0.000000
O	1.821165	0.000000	1.821165
O	0.000000	1.821165	1.821165
Li	1.821165	1.821165	5.463483
Na	0.000000	0.000000	3.642318
O	1.821165	1.821165	3.642318
O	1.821165	0.000000	5.463483
O	0.000000	1.821165	5.463483
Li	1.821165	5.463483	1.821165
Na	0.000000	3.642318	0.000000
O	1.821165	5.463483	0.000000
O	1.821165	3.642318	1.821165
O	0.000000	5.463483	1.821165
Li	1.821165	5.463483	5.463483
Na	0.000000	3.642318	3.642318
O	1.821165	5.463483	3.642318
O	1.821165	3.642318	5.463483
O	0.000000	5.463483	5.463483
Li	5.463483	1.821165	1.821165
Na	3.642318	0.000000	0.000000
O	5.463483	1.821165	0.000000
O	5.463483	0.000000	1.821165
O	3.642318	1.821165	1.821165
Li	5.463483	1.821165	5.463483
Na	3.642318	0.000000	3.642318
O	5.463483	1.821165	3.642318
O	5.463483	0.000000	5.463483
O	3.642318	1.821165	5.463483
Li	5.463483	5.463483	1.821165
Na	3.642318	3.642318	0.000000
O	5.463483	5.463483	0.000000
O	5.463483	3.642318	1.821165
O	3.642318	5.463483	1.821165
Li	5.463483	5.463483	5.463483
Na	3.642318	3.642318	3.642318
O	5.463483	5.463483	3.642318
O	5.463483	3.642318	5.463483
O	3.642318	5.463483	5.463483
