40

Li	1.919707	1.919707	1.919707
Na	0.000000	0.000000	0.000000
O	0.000000	1.919707	1.919707
O	1.919707	0.000000	1.919707
O	1.919707	1.919707	0.000000
Li	1.919707	1.919707	5.759122
Na	0.000000	0.000000	3.839415
O	0.000000	1.919707	5.759122
O	1.919707	0.000000	5.759122
O	1.919707	1.919707	3.839415
Li	1.919707	5.759122	1.919707
Na	0.000000	3.839415	0.000000
O	0.000000	5.759122	1.919707
O	1.919707	3.839415	1.919707
O	1.919707	5.759122	0.000000
Li	1.919707	5.759122	5.759122
Na	0.000000	3.839415	3.839415
O	0.000000	5.759122	5.759122
O	1.919707	3.839415	5.759122
O	1.919707	5.759122	3.839415
Li	5.759122	1.919707	1.919707
Na	3.839415	0.000000	0.000000
O	3.839415	1.919707	1.919707
O	5.759122	0.000000	1.919707
O	5.759122	1.919707	0.000000
Li	5.759122	1.919707	5.759122
Na	3.839415	0.000000	3.839415
O	3.839415	1.919707	5.759122
O	5.759122	0.000000	5.759122
O	5.759122	1.919707	3.839415
Li	5.759122	5.759122	1.919707
Na	3.839415	3.839415	0.000000
O	3.839415	5.759122	1.919707
O	5.759122	3.839415	1.919707
O	5.759122	5.759122	0.000000
Li	5.759122	5.759122	5.759122
Na	3.839415	3.839415	3.839415
O	3.839415	5.759122	5.759122
O	5.759122	3.839415	5.759122
O	5.759122	5.759122	3.839415
