40

O	0.000000	1.895964	1.895964
O	1.895964	0.000000	1.895964
O	1.895964	1.895964	0.000000
Os	0.000000	0.000000	0.000000
Zn	1.895964	1.895964	1.895964
O	0.000000	1.895964	5.687893
O	1.895964	0.000000	5.687893
O	1.895964	1.895964	3.791929
Os	0.000000	0.000000	3.791929
Zn	1.895964	1.895964	5.687893
O	0.000000	5.687893	1.895964
O	1.895964	3.791929	1.895964
O	1.895964	5.687893	0.000000
Os	0.000000	3.791929	0.000000
Zn	1.895964	5.687893	1.895964
O	0.000000	5.687893	5.687893
O	1.895964	3.791929	5.687893
O	1.895964	5.687893	3.791929
Os	0.000000	3.791929	3.791929
Zn	1.895964	5.687893	5.687893
O	3.791929	1.895964	1.895964
O	5.687893	0.000000	1.895964
O	5.687893	1.895964	0.000000
Os	3.791929	0.000000	0.000000
Zn	5.687893	1.895964	1.895964
O	3.791929	1.895964	5.687893
O	5.687893	0.000000	5.687893
O	5.687893	1.895964	3.791929
Os	3.791929	0.000000	3.791929
Zn	5.687893	1.895964	5.687893
O	3.791929	5.687893	1.895964
O	5.687893	3.791929	1.895964
O	5.687893	5.687893	0.000000
Os	3.791929	3.791929	0.000000
Zn	5.687893	5.687893	1.895964
O	3.791929	5.687893	5.687893
O	5.687893	3.791929	5.687893
O	5.687893	5.687893	3.791929
Os	3.791929	3.791929	3.791929
Zn	5.687893	5.687893	5.687893
