112

Be	0.000000	0.000000	0.000000
Be	2.190860	-2.190964	-2.190964
O	1.055323	1.055449	-1.055449
O	-1.135547	1.135515	-3.246413
O	3.246183	-1.135515	-1.135515
O	1.135547	-1.135515	-3.246413
O	1.055323	3.326479	-3.326479
O	3.326406	3.326479	-1.055449
O	3.326406	1.055449	-3.326479
O	5.517266	1.135515	-1.135515
Tm	-1.095435	-1.095482	-3.286446
Tm	5.477154	-1.095482	-1.095482
Tm	3.286295	1.095482	-1.095482
Tm	1.095435	1.095482	-3.286446
Be	4.381721	4.381928	0.000000
Be	6.572580	2.190964	-2.190964
O	5.437044	5.437377	-1.055449
O	3.246174	5.517443	-3.246413
O	7.627904	3.246413	-1.135515
O	5.517267	3.246413	-3.246413
O	5.437044	7.708407	-3.326479
O	7.708127	7.708407	-1.055449
O	7.708127	5.437377	-3.326479
O	9.898987	5.517443	-1.135515
Tm	3.286286	3.286446	-3.286446
Tm	9.858875	3.286446	-1.095482
Tm	7.668015	5.477410	-1.095482
Tm	5.477155	5.477410	-3.286446
Be	-4.381721	0.000000	-4.381928
Be	-2.190861	-2.190964	-6.572892
O	-3.326397	1.055449	-5.437377
O	-5.517267	1.135515	-7.628341
O	-1.135538	-1.135515	-5.517443
O	-3.246174	-1.135515	-7.628341
O	-3.326397	3.326479	-7.708407
O	-1.055314	3.326479	-5.437377
O	-1.055314	1.055449	-7.708407
O	1.135545	1.135515	-5.517443
Tm	-5.477155	-1.095482	-7.668374
Tm	1.095434	-1.095482	-5.477410
Tm	-1.095426	1.095482	-5.477410
Tm	-3.286286	1.095482	-7.668374
Be	0.000000	4.381928	-4.381928
Be	2.190860	2.190964	-6.572892
O	1.055323	5.437377	-5.437377
O	-1.135547	5.517443	-7.628341
O	3.246183	3.246413	-5.517443
O	1.135547	3.246413	-7.628341
O	1.055323	7.708407	-7.708407
O	3.326406	7.708407	-5.437377
O	3.326406	5.437377	-7.708407
O	5.517266	5.517443	-5.517443
Tm	-1.095435	3.286446	-7.668374
Tm	5.477154	3.286446	-5.477410
Tm	3.286295	5.477410	-5.477410
Tm	1.095435	5.477410	-7.668374
Be	4.381721	-4.381928	0.000000
Be	6.572580	-6.572892	-2.190964
O	5.437044	-3.326479	-1.055449
O	3.246174	-3.246413	-3.246413
O	7.627904	-5.517443	-1.135515
O	5.517267	-5.517443	-3.246413
O	5.437044	-1.055449	-3.326479
O	7.708127	-1.055449	-1.055449
O	7.708127	-3.326479	-3.326479
O	9.898987	-3.246413	-1.135515
Tm	3.286286	-5.477410	-3.286446
Tm	9.858875	-5.477410	-1.095482
Tm	7.668015	-3.286446	-1.095482
Tm	5.477155	-3.286446	-3.286446
Be	8.763441	0.000000	0.000000
Be	10.954301	-2.190964	-2.190964
O	9.818764	1.055449	-1.055449
O	7.627895	1.135515	-3.246413
O	12.009624	-1.135515	-1.135515
O	9.898988	-1.135515	-3.246413
O	9.818764	3.326479	-3.326479
O	12.089847	3.326479	-1.055449
O	12.089847	1.055449	-3.326479
O	14.280707	1.135515	-1.135515
Tm	7.668006	-1.095482	-3.286446
Tm	14.240596	-1.095482	-1.095482
Tm	12.049736	1.095482	-1.095482
Tm	9.858876	1.095482	-3.286446
Be	0.000000	-4.381928	-4.381928
Be	2.190860	-6.572892	-6.572892
O	1.055323	-3.326479	-5.437377
O	-1.135547	-3.246413	-7.628341
O	3.246183	-5.517443	-5.517443
O	1.135547	-5.517443	-7.628341
O	1.055323	-1.055449	-7.708407
O	3.326406	-1.055449	-5.437377
O	3.326406	-3.326479	-7.708407
O	5.517266	-3.246413	-5.517443
Tm	-1.095435	-5.477410	-7.668374
Tm	5.477154	-5.477410	-5.477410
Tm	3.286295	-3.286446	-5.477410
Tm	1.095435	-3.286446	-7.668374
Be	4.381721	0.000000	-4.381928
Be	6.572580	-2.190964	-6.572892
O	5.437044	1.055449	-5.437377
O	3.246174	1.135515	-7.628341
O	7.627904	-1.135515	-5.517443
O	5.517267	-1.135515	-7.628341
O	5.437044	3.326479	-7.708407
O	7.708127	3.326479	-5.437377
O	7.708127	1.055449	-7.708407
O	9.898987	1.135515	-5.517443
Tm	3.286286	-1.095482	-7.668374
Tm	9.858875	-1.095482	-5.477410
Tm	7.668015	1.095482	-5.477410
Tm	5.477155	1.095482	-7.668374
