112

O	3.789322	-1.158535	-1.158535
O	-1.158879	1.158535	-3.790816
O	1.158879	-1.158535	-3.790816
O	1.315221	1.316141	-1.316141
O	6.107080	1.158535	-1.158535
O	1.315221	3.633210	-3.633210
O	3.632980	3.633210	-1.316141
O	3.632980	1.316141	-3.633210
Pd	0.000000	0.000000	0.000000
Pd	2.474101	-2.474675	-2.474675
Pr	-1.237050	-1.237338	-3.712013
Pr	3.711151	1.237338	-1.237338
Pr	6.185251	-1.237338	-1.237338
Pr	1.237050	1.237338	-3.712013
O	8.737523	3.790816	-1.158535
O	3.789322	6.107885	-3.790816
O	6.107080	3.790816	-3.790816
O	6.263423	6.265491	-1.316141
O	11.055281	6.107885	-1.158535
O	6.263423	8.582561	-3.633210
O	8.581181	8.582561	-1.316141
O	8.581181	6.265491	-3.633210
Pd	4.948201	4.949351	0.000000
Pd	7.422302	2.474675	-2.474675
Pr	3.711151	3.712013	-3.712013
Pr	8.659352	6.186688	-1.237338
Pr	11.133453	3.712013	-1.237338
Pr	6.185251	6.186688	-3.712013
O	-1.158879	-1.158535	-6.107885
O	-6.107080	1.158535	-8.740167
O	-3.789322	-1.158535	-8.740167
O	-3.632980	1.316141	-6.265491
O	1.158879	1.158535	-6.107885
O	-3.632980	3.633210	-8.582561
O	-1.315221	3.633210	-6.265491
O	-1.315221	1.316141	-8.582561
Pd	-4.948201	0.000000	-4.949351
Pd	-2.474101	-2.474675	-7.424026
Pr	-6.185251	-1.237338	-8.661364
Pr	-1.237050	1.237338	-6.186688
Pr	1.237050	-1.237338	-6.186688
Pr	-3.711151	1.237338	-8.661364
O	3.789322	3.790816	-6.107885
O	-1.158879	6.107885	-8.740167
O	1.158879	3.790816	-8.740167
O	1.315221	6.265491	-6.265491
O	6.107080	6.107885	-6.107885
O	1.315221	8.582561	-8.582561
O	3.632980	8.582561	-6.265491
O	3.632980	6.265491	-8.582561
Pd	0.000000	4.949351	-4.949351
Pd	2.474101	2.474675	-7.424026
Pr	-1.237050	3.712013	-8.661364
Pr	3.711151	6.186688	-6.186688
Pr	6.185251	3.712013	-6.186688
Pr	1.237050	6.186688	-8.661364
O	8.737523	-6.107885	-1.158535
O	3.789322	-3.790816	-3.790816
O	6.107080	-6.107885	-3.790816
O	6.263423	-3.633210	-1.316141
O	11.055281	-3.790816	-1.158535
O	6.263423	-1.316141	-3.633210
O	8.581181	-1.316141	-1.316141
O	8.581181	-3.633210	-3.633210
Pd	4.948201	-4.949351	0.000000
Pd	7.422302	-7.424026	-2.474675
Pr	3.711151	-6.186688	-3.712013
Pr	8.659352	-3.712013	-1.237338
Pr	11.133453	-6.186688	-1.237338
Pr	6.185251	-3.712013	-3.712013
O	13.685724	-1.158535	-1.158535
O	8.737523	1.158535	-3.790816
O	11.055281	-1.158535	-3.790816
O	11.211624	1.316141	-1.316141
O	16.003483	1.158535	-1.158535
O	11.211624	3.633210	-3.633210
O	13.529382	3.633210	-1.316141
O	13.529382	1.316141	-3.633210
Pd	9.896402	0.000000	0.000000
Pd	12.370503	-2.474675	-2.474675
Pr	8.659352	-1.237338	-3.712013
Pr	13.607553	1.237338	-1.237338
Pr	16.081654	-1.237338	-1.237338
Pr	11.133453	1.237338	-3.712013
O	3.789322	-6.107885	-6.107885
O	-1.158879	-3.790816	-8.740167
O	1.158879	-6.107885	-8.740167
O	1.315221	-3.633210	-6.265491
O	6.107080	-3.790816	-6.107885
O	1.315221	-1.316141	-8.582561
O	3.632980	-1.316141	-6.265491
O	3.632980	-3.633210	-8.582561
Pd	0.000000	-4.949351	-4.949351
Pd	2.474101	-7.424026	-7.424026
Pr	-1.237050	-6.186688	-8.661364
Pr	3.711151	-3.712013	-6.186688
Pr	6.185251	-6.186688	-6.186688
Pr	1.237050	-3.712013	-8.661364
O	8.737523	-1.158535	-6.107885
O	3.789322	1.158535	-8.740167
O	6.107080	-1.158535	-8.740167
O	6.263423	1.316141	-6.265491
O	11.055281	1.158535	-6.107885
O	6.263423	3.633210	-8.582561
O	8.581181	3.633210	-6.265491
O	8.581181	1.316141	-8.582561
Pd	4.948201	0.000000	-4.949351
Pd	7.422302	-2.474675	-7.424026
Pr	3.711151	-1.237338	-8.661364
Pr	8.659352	1.237338	-6.186688
Pr	11.133453	-1.237338	-6.186688
Pr	6.185251	1.237338	-8.661364
