40

Nb	0.000000	0.000000	0.000000
O	0.000000	1.896088	1.896088
O	1.896088	0.000000	1.896088
O	1.896088	1.896088	0.000000
P	1.896088	1.896088	1.896088
Nb	0.000000	0.000000	3.792175
O	0.000000	1.896088	5.688263
O	1.896088	0.000000	5.688263
O	1.896088	1.896088	3.792175
P	1.896088	1.896088	5.688263
Nb	0.000000	3.792175	0.000000
O	0.000000	5.688263	1.896088
O	1.896088	3.792175	1.896088
O	1.896088	5.688263	0.000000
P	1.896088	5.688263	1.896088
Nb	0.000000	3.792175	3.792175
O	0.000000	5.688263	5.688263
O	1.896088	3.792175	5.688263
O	1.896088	5.688263	3.792175
P	1.896088	5.688263	5.688263
Nb	3.792175	0.000000	0.000000
O	3.792175	1.896088	1.896088
O	5.688263	0.000000	1.896088
O	5.688263	1.896088	0.000000
P	5.688263	1.896088	1.896088
Nb	3.792175	0.000000	3.792175
O	3.792175	1.896088	5.688263
O	5.688263	0.000000	5.688263
O	5.688263	1.896088	3.792175
P	5.688263	1.896088	5.688263
Nb	3.792175	3.792175	0.000000
O	3.792175	5.688263	1.896088
O	5.688263	3.792175	1.896088
O	5.688263	5.688263	0.000000
P	5.688263	5.688263	1.896088
Nb	3.792175	3.792175	3.792175
O	3.792175	5.688263	5.688263
O	5.688263	3.792175	5.688263
O	5.688263	5.688263	3.792175
P	5.688263	5.688263	5.688263
