40

Li	1.876284	1.876284	1.876284
O	1.876284	1.876284	0.000000
O	1.876284	0.000000	1.876284
O	0.000000	1.876284	1.876284
Th	0.000000	0.000000	0.000000
Li	1.876284	1.876284	5.628853
O	1.876284	1.876284	3.752568
O	1.876284	0.000000	5.628853
O	0.000000	1.876284	5.628853
Th	0.000000	0.000000	3.752568
Li	1.876284	5.628853	1.876284
O	1.876284	5.628853	0.000000
O	1.876284	3.752568	1.876284
O	0.000000	5.628853	1.876284
Th	0.000000	3.752568	0.000000
Li	1.876284	5.628853	5.628853
O	1.876284	5.628853	3.752568
O	1.876284	3.752568	5.628853
O	0.000000	5.628853	5.628853
Th	0.000000	3.752568	3.752568
Li	5.628853	1.876284	1.876284
O	5.628853	1.876284	0.000000
O	5.628853	0.000000	1.876284
O	3.752568	1.876284	1.876284
Th	3.752568	0.000000	0.000000
Li	5.628853	1.876284	5.628853
O	5.628853	1.876284	3.752568
O	5.628853	0.000000	5.628853
O	3.752568	1.876284	5.628853
Th	3.752568	0.000000	3.752568
Li	5.628853	5.628853	1.876284
O	5.628853	5.628853	0.000000
O	5.628853	3.752568	1.876284
O	3.752568	5.628853	1.876284
Th	3.752568	3.752568	0.000000
Li	5.628853	5.628853	5.628853
O	5.628853	5.628853	3.752568
O	5.628853	3.752568	5.628853
O	3.752568	5.628853	5.628853
Th	3.752568	3.752568	3.752568
