40

Ge	0.000000	0.000000	0.000000
O	1.902820	1.902820	0.000000
O	1.902820	0.000000	1.902820
O	0.000000	1.902820	1.902820
V	1.902820	1.902820	1.902820
Ge	0.000000	0.000000	3.805645
O	1.902820	1.902820	3.805645
O	1.902820	0.000000	5.708465
O	0.000000	1.902820	5.708465
V	1.902820	1.902820	5.708465
Ge	0.000000	3.805645	0.000000
O	1.902820	5.708465	0.000000
O	1.902820	3.805645	1.902820
O	0.000000	5.708465	1.902820
V	1.902820	5.708465	1.902820
Ge	0.000000	3.805645	3.805645
O	1.902820	5.708465	3.805645
O	1.902820	3.805645	5.708465
O	0.000000	5.708465	5.708465
V	1.902820	5.708465	5.708465
Ge	3.805645	0.000000	0.000000
O	5.708465	1.902820	0.000000
O	5.708465	0.000000	1.902820
O	3.805645	1.902820	1.902820
V	5.708465	1.902820	1.902820
Ge	3.805645	0.000000	3.805645
O	5.708465	1.902820	3.805645
O	5.708465	0.000000	5.708465
O	3.805645	1.902820	5.708465
V	5.708465	1.902820	5.708465
Ge	3.805645	3.805645	0.000000
O	5.708465	5.708465	0.000000
O	5.708465	3.805645	1.902820
O	3.805645	5.708465	1.902820
V	5.708465	5.708465	1.902820
Ge	3.805645	3.805645	3.805645
O	5.708465	5.708465	3.805645
O	5.708465	3.805645	5.708465
O	3.805645	5.708465	5.708465
V	5.708465	5.708465	5.708465
