40

O	2.017092	2.017092	0.000000
O	2.017092	0.000000	2.017092
O	0.000000	2.017092	2.017092
Ta	2.017092	2.017092	2.017092
Tb	0.000000	0.000000	0.000000
O	2.017092	2.017092	4.034184
O	2.017092	0.000000	6.051275
O	0.000000	2.017092	6.051275
Ta	2.017092	2.017092	6.051275
Tb	0.000000	0.000000	4.034184
O	2.017092	6.051275	0.000000
O	2.017092	4.034184	2.017092
O	0.000000	6.051275	2.017092
Ta	2.017092	6.051275	2.017092
Tb	0.000000	4.034184	0.000000
O	2.017092	6.051275	4.034184
O	2.017092	4.034184	6.051275
O	0.000000	6.051275	6.051275
Ta	2.017092	6.051275	6.051275
Tb	0.000000	4.034184	4.034184
O	6.051275	2.017092	0.000000
O	6.051275	0.000000	2.017092
O	4.034184	2.017092	2.017092
Ta	6.051275	2.017092	2.017092
Tb	4.034184	0.000000	0.000000
O	6.051275	2.017092	4.034184
O	6.051275	0.000000	6.051275
O	4.034184	2.017092	6.051275
Ta	6.051275	2.017092	6.051275
Tb	4.034184	0.000000	4.034184
O	6.051275	6.051275	0.000000
O	6.051275	4.034184	2.017092
O	4.034184	6.051275	2.017092
Ta	6.051275	6.051275	2.017092
Tb	4.034184	4.034184	0.000000
O	6.051275	6.051275	4.034184
O	6.051275	4.034184	6.051275
O	4.034184	6.051275	6.051275
Ta	6.051275	6.051275	6.051275
Tb	4.034184	4.034184	4.034184
