112

O	-0.960051	0.959731	-3.849625
O	3.847898	-0.959731	-0.959731
O	0.960051	-0.959731	-3.849625
O	1.443919	1.444947	-1.444947
O	5.767999	0.959731	-0.959731
O	1.443919	3.364408	-3.364408
O	3.364020	3.364408	-1.444947
O	3.364020	1.444947	-3.364408
Rb	0.000000	0.000000	0.000000
Rb	2.403970	-2.404678	-2.404678
Zr	-1.201985	-1.202344	-3.607022
Zr	6.009934	-1.202344	-1.202344
Zr	1.201985	1.202344	-3.607022
Zr	3.605964	1.202344	-1.202344
O	3.847896	5.769089	-3.849625
O	8.655845	3.849628	-0.959731
O	5.767997	3.849628	-3.849625
O	6.251865	6.254306	-1.444947
O	10.575946	5.769089	-0.959731
O	6.251865	8.173767	-3.364408
O	8.171966	8.173767	-1.444947
O	8.171967	6.254306	-3.364408
Rb	4.807946	4.809359	0.000000
Rb	7.211916	2.404681	-2.404678
Zr	3.605962	3.607015	-3.607022
Zr	10.817880	3.607015	-1.202344
Zr	6.009931	6.011703	-3.607022
Zr	8.413911	6.011703	-1.202344
O	-5.767997	0.959731	-8.658984
O	-0.960048	-0.959731	-5.769089
O	-3.847896	-0.959731	-8.658984
O	-3.364028	1.444947	-6.254306
O	0.960053	0.959731	-5.769089
O	-3.364028	3.364408	-8.173767
O	-1.443926	3.364408	-6.254306
O	-1.443926	1.444947	-8.173767
Rb	-4.807946	0.000000	-4.809359
Rb	-2.403977	-2.404678	-7.214037
Zr	-6.009931	-1.202344	-8.416381
Zr	1.201987	-1.202344	-6.011703
Zr	-3.605962	1.202344	-8.416381
Zr	-1.201982	1.202344	-6.011703
O	-0.960051	5.769089	-8.658984
O	3.847898	3.849628	-5.769089
O	0.960051	3.849628	-8.658984
O	1.443919	6.254306	-6.254306
O	5.767999	5.769089	-5.769089
O	1.443919	8.173767	-8.173767
O	3.364020	8.173767	-6.254306
O	3.364020	6.254306	-8.173767
Rb	0.000000	4.809359	-4.809359
Rb	2.403970	2.404681	-7.214037
Zr	-1.201985	3.607015	-8.416381
Zr	6.009934	3.607015	-6.011703
Zr	1.201985	6.011703	-8.416381
Zr	3.605964	6.011703	-6.011703
O	3.847896	-3.849628	-3.849625
O	8.655845	-5.769089	-0.959731
O	5.767997	-5.769089	-3.849625
O	6.251865	-3.364411	-1.444947
O	10.575946	-3.849628	-0.959731
O	6.251865	-1.444950	-3.364408
O	8.171966	-1.444950	-1.444947
O	8.171967	-3.364411	-3.364408
Rb	4.807946	-4.809359	0.000000
Rb	7.211916	-7.214037	-2.404678
Zr	3.605962	-6.011703	-3.607022
Zr	10.817880	-6.011703	-1.202344
Zr	6.009931	-3.607015	-3.607022
Zr	8.413911	-3.607015	-1.202344
O	8.655842	0.959731	-3.849625
O	13.463791	-0.959731	-0.959731
O	10.575943	-0.959731	-3.849625
O	11.059812	1.444947	-1.444947
O	15.383892	0.959731	-0.959731
O	11.059812	3.364408	-3.364408
O	12.979913	3.364408	-1.444947
O	12.979913	1.444947	-3.364408
Rb	9.615893	0.000000	0.000000
Rb	12.019862	-2.404678	-2.404678
Zr	8.413908	-1.202344	-3.607022
Zr	15.625826	-1.202344	-1.202344
Zr	10.817878	1.202344	-3.607022
Zr	13.221857	1.202344	-1.202344
O	-0.960051	-3.849628	-8.658984
O	3.847898	-5.769089	-5.769089
O	0.960051	-5.769089	-8.658984
O	1.443919	-3.364411	-6.254306
O	5.767999	-3.849628	-5.769089
O	1.443919	-1.444950	-8.173767
O	3.364020	-1.444950	-6.254306
O	3.364020	-3.364411	-8.173767
Rb	0.000000	-4.809359	-4.809359
Rb	2.403970	-7.214037	-7.214037
Zr	-1.201985	-6.011703	-8.416381
Zr	6.009934	-6.011703	-6.011703
Zr	1.201985	-3.607015	-8.416381
Zr	3.605964	-3.607015	-6.011703
O	3.847896	0.959731	-8.658984
O	8.655845	-0.959731	-5.769089
O	5.767997	-0.959731	-8.658984
O	6.251865	1.444947	-6.254306
O	10.575946	0.959731	-5.769089
O	6.251865	3.364408	-8.173767
O	8.171966	3.364408	-6.254306
O	8.171967	1.444947	-8.173767
Rb	4.807946	0.000000	-4.809359
Rb	7.211916	-2.404678	-7.214037
Zr	3.605962	-1.202344	-8.416381
Zr	10.817880	-1.202344	-6.011703
Zr	6.009931	1.202344	-8.416381
Zr	8.413911	1.202344	-6.011703
