40

La	0.000000	0.000000	0.000000
O	2.206514	2.206514	0.000000
O	2.206514	0.000000	2.206514
O	0.000000	2.206514	2.206514
Pu	2.206514	2.206514	2.206514
La	0.000000	0.000000	4.413028
O	2.206514	2.206514	4.413028
O	2.206514	0.000000	6.619542
O	0.000000	2.206514	6.619542
Pu	2.206514	2.206514	6.619542
La	0.000000	4.413028	0.000000
O	2.206514	6.619542	0.000000
O	2.206514	4.413028	2.206514
O	0.000000	6.619542	2.206514
Pu	2.206514	6.619542	2.206514
La	0.000000	4.413028	4.413028
O	2.206514	6.619542	4.413028
O	2.206514	4.413028	6.619542
O	0.000000	6.619542	6.619542
Pu	2.206514	6.619542	6.619542
La	4.413028	0.000000	0.000000
O	6.619542	2.206514	0.000000
O	6.619542	0.000000	2.206514
O	4.413028	2.206514	2.206514
Pu	6.619542	2.206514	2.206514
La	4.413028	0.000000	4.413028
O	6.619542	2.206514	4.413028
O	6.619542	0.000000	6.619542
O	4.413028	2.206514	6.619542
Pu	6.619542	2.206514	6.619542
La	4.413028	4.413028	0.000000
O	6.619542	6.619542	0.000000
O	6.619542	4.413028	2.206514
O	4.413028	6.619542	2.206514
Pu	6.619542	6.619542	2.206514
La	4.413028	4.413028	4.413028
O	6.619542	6.619542	4.413028
O	6.619542	4.413028	6.619542
O	4.413028	6.619542	6.619542
Pu	6.619542	6.619542	6.619542
