40

Ga	1.955748	1.955748	1.955748
La	0.000000	0.000000	0.000000
O	1.955748	1.955748	0.000000
O	1.955748	0.000000	1.955748
O	0.000000	1.955748	1.955748
Ga	1.955748	1.955748	5.867245
La	0.000000	0.000000	3.911497
O	1.955748	1.955748	3.911497
O	1.955748	0.000000	5.867245
O	0.000000	1.955748	5.867245
Ga	1.955748	5.867245	1.955748
La	0.000000	3.911497	0.000000
O	1.955748	5.867245	0.000000
O	1.955748	3.911497	1.955748
O	0.000000	5.867245	1.955748
Ga	1.955748	5.867245	5.867245
La	0.000000	3.911497	3.911497
O	1.955748	5.867245	3.911497
O	1.955748	3.911497	5.867245
O	0.000000	5.867245	5.867245
Ga	5.867245	1.955748	1.955748
La	3.911497	0.000000	0.000000
O	5.867245	1.955748	0.000000
O	5.867245	0.000000	1.955748
O	3.911497	1.955748	1.955748
Ga	5.867245	1.955748	5.867245
La	3.911497	0.000000	3.911497
O	5.867245	1.955748	3.911497
O	5.867245	0.000000	5.867245
O	3.911497	1.955748	5.867245
Ga	5.867245	5.867245	1.955748
La	3.911497	3.911497	0.000000
O	5.867245	5.867245	0.000000
O	5.867245	3.911497	1.955748
O	3.911497	5.867245	1.955748
Ga	5.867245	5.867245	5.867245
La	3.911497	3.911497	3.911497
O	5.867245	5.867245	3.911497
O	5.867245	3.911497	5.867245
O	3.911497	5.867245	5.867245
