40

Dy	0.000000	0.000000	0.000000
O	2.064589	2.064589	0.000000
O	2.064589	0.000000	2.064589
O	0.000000	2.064589	2.064589
Yb	2.064589	2.064589	2.064589
Dy	0.000000	0.000000	4.129178
O	2.064589	2.064589	4.129178
O	2.064589	0.000000	6.193767
O	0.000000	2.064589	6.193767
Yb	2.064589	2.064589	6.193767
Dy	0.000000	4.129178	0.000000
O	2.064589	6.193767	0.000000
O	2.064589	4.129178	2.064589
O	0.000000	6.193767	2.064589
Yb	2.064589	6.193767	2.064589
Dy	0.000000	4.129178	4.129178
O	2.064589	6.193767	4.129178
O	2.064589	4.129178	6.193767
O	0.000000	6.193767	6.193767
Yb	2.064589	6.193767	6.193767
Dy	4.129178	0.000000	0.000000
O	6.193767	2.064589	0.000000
O	6.193767	0.000000	2.064589
O	4.129178	2.064589	2.064589
Yb	6.193767	2.064589	2.064589
Dy	4.129178	0.000000	4.129178
O	6.193767	2.064589	4.129178
O	6.193767	0.000000	6.193767
O	4.129178	2.064589	6.193767
Yb	6.193767	2.064589	6.193767
Dy	4.129178	4.129178	0.000000
O	6.193767	6.193767	0.000000
O	6.193767	4.129178	2.064589
O	4.129178	6.193767	2.064589
Yb	6.193767	6.193767	2.064589
Dy	4.129178	4.129178	4.129178
O	6.193767	6.193767	4.129178
O	6.193767	4.129178	6.193767
O	4.129178	6.193767	6.193767
Yb	6.193767	6.193767	6.193767
