320

O	4.454622	0.000000	0.000000
O	0.000000	4.454622	0.000000
O	6.573280	3.736387	0.440178
O	6.790587	8.191009	0.440178
O	8.469066	2.118658	0.718235
O	4.894800	6.573280	0.718235
O	3.736387	4.014444	2.118658
O	0.718235	8.469066	2.118658
O	8.191009	4.014444	2.335964
O	5.172858	8.469066	2.335964
O	4.014444	2.118658	3.736387
O	0.440178	6.573280	3.736387
O	2.118658	3.736387	4.014444
O	2.335964	8.191009	4.014444
O	0.000000	0.000000	4.454622
O	4.454622	4.454622	4.454622
O	6.573280	0.718235	4.894800
O	6.790587	5.172858	4.894800
O	8.469066	2.335964	5.172858
O	4.894800	6.790587	5.172858
O	3.736387	0.440178	6.573280
O	0.718235	4.894800	6.573280
O	8.191009	0.440178	6.790587
O	5.172858	4.894800	6.790587
O	4.014444	2.335964	8.191009
O	0.440178	6.790587	8.191009
O	2.118658	0.718235	8.469066
O	2.335964	5.172858	8.469066
P	8.000042	3.545420	0.909202
P	5.363824	8.000042	0.909202
P	3.545420	3.545420	3.545420
P	0.909202	8.000042	3.545420
P	8.000042	0.909202	5.363824
P	5.363824	5.363824	5.363824
P	3.545420	0.909202	8.000042
P	0.909202	5.363824	8.000042
Th	0.000000	0.000000	0.000000
Th	4.454622	4.454622	0.000000
Th	4.454622	0.000000	4.454622
Th	0.000000	4.454622	4.454622
O	4.454622	0.000000	8.909244
O	0.000000	4.454622	8.909244
O	6.573280	3.736387	9.349422
O	6.790587	8.191009	9.349422
O	8.469066	2.118658	9.627480
O	4.894800	6.573280	9.627480
O	3.736387	4.014444	11.027902
O	0.718235	8.469066	11.027902
O	8.191009	4.014444	11.245209
O	5.172858	8.469066	11.245209
O	4.014444	2.118658	12.645631
O	0.440178	6.573280	12.645631
O	2.118658	3.736387	12.923689
O	2.335964	8.191009	12.923689
O	0.000000	0.000000	13.363866
O	4.454622	4.454622	13.363866
O	6.573280	0.718235	13.804044
O	6.790587	5.172858	13.804044
O	8.469066	2.335964	14.082102
O	4.894800	6.790587	14.082102
O	3.736387	0.440178	15.482524
O	0.718235	4.894800	15.482524
O	8.191009	0.440178	15.699831
O	5.172858	4.894800	15.699831
O	4.014444	2.335964	17.100253
O	0.440178	6.790587	17.100253
O	2.118658	0.718235	17.378311
O	2.335964	5.172858	17.378311
P	8.000042	3.545420	9.818447
P	5.363824	8.000042	9.818447
P	3.545420	3.545420	12.454664
P	0.909202	8.000042	12.454664
P	8.000042	0.909202	14.273069
P	5.363824	5.363824	14.273069
P	3.545420	0.909202	16.909286
P	0.909202	5.363824	16.909286
Th	0.000000	0.000000	8.909244
Th	4.454622	4.454622	8.909244
Th	4.454622	0.000000	13.363866
Th	0.000000	4.454622	13.363866
O	4.454622	8.909244	0.000000
O	0.000000	13.363866	0.000000
O	6.573280	12.645631	0.440178
O	6.790587	17.100253	0.440178
O	8.469066	11.027902	0.718235
O	4.894800	15.482524	0.718235
O	3.736387	12.923689	2.118658
O	0.718235	17.378311	2.118658
O	8.191009	12.923689	2.335964
O	5.172858	17.378311	2.335964
O	4.014444	11.027902	3.736387
O	0.440178	15.482524	3.736387
O	2.118658	12.645631	4.014444
O	2.335964	17.100253	4.014444
O	0.000000	8.909244	4.454622
O	4.454622	13.363866	4.454622
O	6.573280	9.627480	4.894800
O	6.790587	14.082102	4.894800
O	8.469066	11.245209	5.172858
O	4.894800	15.699831	5.172858
O	3.736387	9.349422	6.573280
O	0.718235	13.804044	6.573280
O	8.191009	9.349422	6.790587
O	5.172858	13.804044	6.790587
O	4.014444	11.245209	8.191009
O	0.440178	15.699831	8.191009
O	2.118658	9.627480	8.469066
O	2.335964	14.082102	8.469066
P	8.000042	12.454664	0.909202
P	5.363824	16.909286	0.909202
P	3.545420	12.454664	3.545420
P	0.909202	16.909286	3.545420
P	8.000042	9.818447	5.363824
P	5.363824	14.273069	5.363824
P	3.545420	9.818447	8.000042
P	0.909202	14.273069	8.000042
Th	0.000000	8.909244	0.000000
Th	4.454622	13.363866	0.000000
Th	4.454622	8.909244	4.454622
Th	0.000000	13.363866	4.454622
O	4.454622	8.909244	8.909244
O	0.000000	13.363866	8.909244
O	6.573280	12.645631	9.349422
O	6.790587	17.100253	9.349422
O	8.469066	11.027902	9.627480
O	4.894800	15.482524	9.627480
O	3.736387	12.923689	11.027902
O	0.718235	17.378311	11.027902
O	8.191009	12.923689	11.245209
O	5.172858	17.378311	11.245209
O	4.014444	11.027902	12.645631
O	0.440178	15.482524	12.645631
O	2.118658	12.645631	12.923689
O	2.335964	17.100253	12.923689
O	0.000000	8.909244	13.363866
O	4.454622	13.363866	13.363866
O	6.573280	9.627480	13.804044
O	6.790587	14.082102	13.804044
O	8.469066	11.245209	14.082102
O	4.894800	15.699831	14.082102
O	3.736387	9.349422	15.482524
O	0.718235	13.804044	15.482524
O	8.191009	9.349422	15.699831
O	5.172858	13.804044	15.699831
O	4.014444	11.245209	17.100253
O	0.440178	15.699831	17.100253
O	2.118658	9.627480	17.378311
O	2.335964	14.082102	17.378311
P	8.000042	12.454664	9.818447
P	5.363824	16.909286	9.818447
P	3.545420	12.454664	12.454664
P	0.909202	16.909286	12.454664
P	8.000042	9.818447	14.273069
P	5.363824	14.273069	14.273069
P	3.545420	9.818447	16.909286
P	0.909202	14.273069	16.909286
Th	0.000000	8.909244	8.909244
Th	4.454622	13.363866	8.909244
Th	4.454622	8.909244	13.363866
Th	0.000000	13.363866	13.363866
O	13.363866	0.000000	0.000000
O	8.909244	4.454622	0.000000
O	15.482524	3.736387	0.440178
O	15.699831	8.191009	0.440178
O	17.378311	2.118658	0.718235
O	13.804044	6.573280	0.718235
O	12.645631	4.014444	2.118658
O	9.627480	8.469066	2.118658
O	17.100253	4.014444	2.335964
O	14.082102	8.469066	2.335964
O	12.923689	2.118658	3.736387
O	9.349422	6.573280	3.736387
O	11.027902	3.736387	4.014444
O	11.245209	8.191009	4.014444
O	8.909244	0.000000	4.454622
O	13.363866	4.454622	4.454622
O	15.482524	0.718235	4.894800
O	15.699831	5.172858	4.894800
O	17.378311	2.335964	5.172858
O	13.804044	6.790587	5.172858
O	12.645631	0.440178	6.573280
O	9.627480	4.894800	6.573280
O	17.100253	0.440178	6.790587
O	14.082102	4.894800	6.790587
O	12.923689	2.335964	8.191009
O	9.349422	6.790587	8.191009
O	11.027902	0.718235	8.469066
O	11.245209	5.172858	8.469066
P	16.909286	3.545420	0.909202
P	14.273069	8.000042	0.909202
P	12.454664	3.545420	3.545420
P	9.818447	8.000042	3.545420
P	16.909286	0.909202	5.363824
P	14.273069	5.363824	5.363824
P	12.454664	0.909202	8.000042
P	9.818447	5.363824	8.000042
Th	8.909244	0.000000	0.000000
Th	13.363866	4.454622	0.000000
Th	13.363866	0.000000	4.454622
Th	8.909244	4.454622	4.454622
O	13.363866	0.000000	8.909244
O	8.909244	4.454622	8.909244
O	15.482524	3.736387	9.349422
O	15.699831	8.191009	9.349422
O	17.378311	2.118658	9.627480
O	13.804044	6.573280	9.627480
O	12.645631	4.014444	11.027902
O	9.627480	8.469066	11.027902
O	17.100253	4.014444	11.245209
O	14.082102	8.469066	11.245209
O	12.923689	2.118658	12.645631
O	9.349422	6.573280	12.645631
O	11.027902	3.736387	12.923689
O	11.245209	8.191009	12.923689
O	8.909244	0.000000	13.363866
O	13.363866	4.454622	13.363866
O	15.482524	0.718235	13.804044
O	15.699831	5.172858	13.804044
O	17.378311	2.335964	14.082102
O	13.804044	6.790587	14.082102
O	12.645631	0.440178	15.482524
O	9.627480	4.894800	15.482524
O	17.100253	0.440178	15.699831
O	14.082102	4.894800	15.699831
O	12.923689	2.335964	17.100253
O	9.349422	6.790587	17.100253
O	11.027902	0.718235	17.378311
O	11.245209	5.172858	17.378311
P	16.909286	3.545420	9.818447
P	14.273069	8.000042	9.818447
P	12.454664	3.545420	12.454664
P	9.818447	8.000042	12.454664
P	16.909286	0.909202	14.273069
P	14.273069	5.363824	14.273069
P	12.454664	0.909202	16.909286
P	9.818447	5.363824	16.909286
Th	8.909244	0.000000	8.909244
Th	13.363866	4.454622	8.909244
Th	13.363866	0.000000	13.363866
Th	8.909244	4.454622	13.363866
O	13.363866	8.909244	0.000000
O	8.909244	13.363866	0.000000
O	15.482524	12.645631	0.440178
O	15.699831	17.100253	0.440178
O	17.378311	11.027902	0.718235
O	13.804044	15.482524	0.718235
O	12.645631	12.923689	2.118658
O	9.627480	17.378311	2.118658
O	17.100253	12.923689	2.335964
O	14.082102	17.378311	2.335964
O	12.923689	11.027902	3.736387
O	9.349422	15.482524	3.736387
O	11.027902	12.645631	4.014444
O	11.245209	17.100253	4.014444
O	8.909244	8.909244	4.454622
O	13.363866	13.363866	4.454622
O	15.482524	9.627480	4.894800
O	15.699831	14.082102	4.894800
O	17.378311	11.245209	5.172858
O	13.804044	15.699831	5.172858
O	12.645631	9.349422	6.573280
O	9.627480	13.804044	6.573280
O	17.100253	9.349422	6.790587
O	14.082102	13.804044	6.790587
O	12.923689	11.245209	8.191009
O	9.349422	15.699831	8.191009
O	11.027902	9.627480	8.469066
O	11.245209	14.082102	8.469066
P	16.909286	12.454664	0.909202
P	14.273069	16.909286	0.909202
P	12.454664	12.454664	3.545420
P	9.818447	16.909286	3.545420
P	16.909286	9.818447	5.363824
P	14.273069	14.273069	5.363824
P	12.454664	9.818447	8.000042
P	9.818447	14.273069	8.000042
Th	8.909244	8.909244	0.000000
Th	13.363866	13.363866	0.000000
Th	13.363866	8.909244	4.454622
Th	8.909244	13.363866	4.454622
O	13.363866	8.909244	8.909244
O	8.909244	13.363866	8.909244
O	15.482524	12.645631	9.349422
O	15.699831	17.100253	9.349422
O	17.378311	11.027902	9.627480
O	13.804044	15.482524	9.627480
O	12.645631	12.923689	11.027902
O	9.627480	17.378311	11.027902
O	17.100253	12.923689	11.245209
O	14.082102	17.378311	11.245209
O	12.923689	11.027902	12.645631
O	9.349422	15.482524	12.645631
O	11.027902	12.645631	12.923689
O	11.245209	17.100253	12.923689
O	8.909244	8.909244	13.363866
O	13.363866	13.363866	13.363866
O	15.482524	9.627480	13.804044
O	15.699831	14.082102	13.804044
O	17.378311	11.245209	14.082102
O	13.804044	15.699831	14.082102
O	12.645631	9.349422	15.482524
O	9.627480	13.804044	15.482524
O	17.100253	9.349422	15.699831
O	14.082102	13.804044	15.699831
O	12.923689	11.245209	17.100253
O	9.349422	15.699831	17.100253
O	11.027902	9.627480	17.378311
O	11.245209	14.082102	17.378311
P	16.909286	12.454664	9.818447
P	14.273069	16.909286	9.818447
P	12.454664	12.454664	12.454664
P	9.818447	16.909286	12.454664
P	16.909286	9.818447	14.273069
P	14.273069	14.273069	14.273069
P	12.454664	9.818447	16.909286
P	9.818447	14.273069	16.909286
Th	8.909244	8.909244	8.909244
Th	13.363866	13.363866	8.909244
Th	13.363866	8.909244	13.363866
Th	8.909244	13.363866	13.363866
