40

Li	0.000000	0.000000	0.000000
O	2.109032	2.109032	0.000000
O	2.109032	0.000000	2.109032
O	0.000000	2.109032	2.109032
Pb	2.109032	2.109032	2.109032
Li	0.000000	0.000000	4.218055
O	2.109032	2.109032	4.218055
O	2.109032	0.000000	6.327087
O	0.000000	2.109032	6.327087
Pb	2.109032	2.109032	6.327087
Li	0.000000	4.218055	0.000000
O	2.109032	6.327087	0.000000
O	2.109032	4.218055	2.109032
O	0.000000	6.327087	2.109032
Pb	2.109032	6.327087	2.109032
Li	0.000000	4.218055	4.218055
O	2.109032	6.327087	4.218055
O	2.109032	4.218055	6.327087
O	0.000000	6.327087	6.327087
Pb	2.109032	6.327087	6.327087
Li	4.218055	0.000000	0.000000
O	6.327087	2.109032	0.000000
O	6.327087	0.000000	2.109032
O	4.218055	2.109032	2.109032
Pb	6.327087	2.109032	2.109032
Li	4.218055	0.000000	4.218055
O	6.327087	2.109032	4.218055
O	6.327087	0.000000	6.327087
O	4.218055	2.109032	6.327087
Pb	6.327087	2.109032	6.327087
Li	4.218055	4.218055	0.000000
O	6.327087	6.327087	0.000000
O	6.327087	4.218055	2.109032
O	4.218055	6.327087	2.109032
Pb	6.327087	6.327087	2.109032
Li	4.218055	4.218055	4.218055
O	6.327087	6.327087	4.218055
O	6.327087	4.218055	6.327087
O	4.218055	6.327087	6.327087
Pb	6.327087	6.327087	6.327087
