40

O	2.132764	2.132764	0.000000
O	0.000000	2.132764	2.132764
O	2.132764	0.000000	2.132764
Tb	2.132764	2.132764	2.132764
W	0.000000	0.000000	0.000000
O	2.132764	2.132764	4.265536
O	0.000000	2.132764	6.398300
O	2.132764	0.000000	6.398300
Tb	2.132764	2.132764	6.398300
W	0.000000	0.000000	4.265536
O	2.132764	6.398300	0.000000
O	0.000000	6.398300	2.132764
O	2.132764	4.265536	2.132764
Tb	2.132764	6.398300	2.132764
W	0.000000	4.265536	0.000000
O	2.132764	6.398300	4.265536
O	0.000000	6.398300	6.398300
O	2.132764	4.265536	6.398300
Tb	2.132764	6.398300	6.398300
W	0.000000	4.265536	4.265536
O	6.398300	2.132764	0.000000
O	4.265536	2.132764	2.132764
O	6.398300	0.000000	2.132764
Tb	6.398300	2.132764	2.132764
W	4.265536	0.000000	0.000000
O	6.398300	2.132764	4.265536
O	4.265536	2.132764	6.398300
O	6.398300	0.000000	6.398300
Tb	6.398300	2.132764	6.398300
W	4.265536	0.000000	4.265536
O	6.398300	6.398300	0.000000
O	4.265536	6.398300	2.132764
O	6.398300	4.265536	2.132764
Tb	6.398300	6.398300	2.132764
W	4.265536	4.265536	0.000000
O	6.398300	6.398300	4.265536
O	4.265536	6.398300	6.398300
O	6.398300	4.265536	6.398300
Tb	6.398300	6.398300	6.398300
W	4.265536	4.265536	4.265536
