40

Er	0.000000	0.000000	0.000000
O	1.975609	1.975609	0.000000
O	1.975609	0.000000	1.975609
O	0.000000	1.975609	1.975609
Tc	1.975609	1.975609	1.975609
Er	0.000000	0.000000	3.951218
O	1.975609	1.975609	3.951218
O	1.975609	0.000000	5.926827
O	0.000000	1.975609	5.926827
Tc	1.975609	1.975609	5.926827
Er	0.000000	3.951218	0.000000
O	1.975609	5.926827	0.000000
O	1.975609	3.951218	1.975609
O	0.000000	5.926827	1.975609
Tc	1.975609	5.926827	1.975609
Er	0.000000	3.951218	3.951218
O	1.975609	5.926827	3.951218
O	1.975609	3.951218	5.926827
O	0.000000	5.926827	5.926827
Tc	1.975609	5.926827	5.926827
Er	3.951218	0.000000	0.000000
O	5.926827	1.975609	0.000000
O	5.926827	0.000000	1.975609
O	3.951218	1.975609	1.975609
Tc	5.926827	1.975609	1.975609
Er	3.951218	0.000000	3.951218
O	5.926827	1.975609	3.951218
O	5.926827	0.000000	5.926827
O	3.951218	1.975609	5.926827
Tc	5.926827	1.975609	5.926827
Er	3.951218	3.951218	0.000000
O	5.926827	5.926827	0.000000
O	5.926827	3.951218	1.975609
O	3.951218	5.926827	1.975609
Tc	5.926827	5.926827	1.975609
Er	3.951218	3.951218	3.951218
O	5.926827	5.926827	3.951218
O	5.926827	3.951218	5.926827
O	3.951218	5.926827	5.926827
Tc	5.926827	5.926827	5.926827
