40

Nb	2.037890	2.037890	2.037890
O	2.037890	2.037890	0.000000
O	0.000000	2.037890	2.037890
O	2.037890	0.000000	2.037890
Tl	0.000000	0.000000	0.000000
Nb	2.037890	2.037890	6.113680
O	2.037890	2.037890	4.075789
O	0.000000	2.037890	6.113680
O	2.037890	0.000000	6.113680
Tl	0.000000	0.000000	4.075789
Nb	2.037890	6.113680	2.037890
O	2.037890	6.113680	0.000000
O	0.000000	6.113680	2.037890
O	2.037890	4.075789	2.037890
Tl	0.000000	4.075789	0.000000
Nb	2.037890	6.113680	6.113680
O	2.037890	6.113680	4.075789
O	0.000000	6.113680	6.113680
O	2.037890	4.075789	6.113680
Tl	0.000000	4.075789	4.075789
Nb	6.113680	2.037890	2.037890
O	6.113680	2.037890	0.000000
O	4.075789	2.037890	2.037890
O	6.113680	0.000000	2.037890
Tl	4.075789	0.000000	0.000000
Nb	6.113680	2.037890	6.113680
O	6.113680	2.037890	4.075789
O	4.075789	2.037890	6.113680
O	6.113680	0.000000	6.113680
Tl	4.075789	0.000000	4.075789
Nb	6.113680	6.113680	2.037890
O	6.113680	6.113680	0.000000
O	4.075789	6.113680	2.037890
O	6.113680	4.075789	2.037890
Tl	4.075789	4.075789	0.000000
Nb	6.113680	6.113680	6.113680
O	6.113680	6.113680	4.075789
O	4.075789	6.113680	6.113680
O	6.113680	4.075789	6.113680
Tl	4.075789	4.075789	4.075789
