40

Hf	0.000000	0.000000	0.000000
Nd	2.230138	2.230138	2.230138
O	2.230138	2.230138	0.000000
O	2.230138	0.000000	2.230138
O	0.000000	2.230138	2.230138
Hf	0.000000	0.000000	4.460276
Nd	2.230138	2.230138	6.690414
O	2.230138	2.230138	4.460276
O	2.230138	0.000000	6.690414
O	0.000000	2.230138	6.690414
Hf	0.000000	4.460276	0.000000
Nd	2.230138	6.690414	2.230138
O	2.230138	6.690414	0.000000
O	2.230138	4.460276	2.230138
O	0.000000	6.690414	2.230138
Hf	0.000000	4.460276	4.460276
Nd	2.230138	6.690414	6.690414
O	2.230138	6.690414	4.460276
O	2.230138	4.460276	6.690414
O	0.000000	6.690414	6.690414
Hf	4.460276	0.000000	0.000000
Nd	6.690414	2.230138	2.230138
O	6.690414	2.230138	0.000000
O	6.690414	0.000000	2.230138
O	4.460276	2.230138	2.230138
Hf	4.460276	0.000000	4.460276
Nd	6.690414	2.230138	6.690414
O	6.690414	2.230138	4.460276
O	6.690414	0.000000	6.690414
O	4.460276	2.230138	6.690414
Hf	4.460276	4.460276	0.000000
Nd	6.690414	6.690414	2.230138
O	6.690414	6.690414	0.000000
O	6.690414	4.460276	2.230138
O	4.460276	6.690414	2.230138
Hf	4.460276	4.460276	4.460276
Nd	6.690414	6.690414	6.690414
O	6.690414	6.690414	4.460276
O	6.690414	4.460276	6.690414
O	4.460276	6.690414	6.690414
