40

Nb	0.000000	0.000000	0.000000
O	2.099634	2.099634	0.000000
O	0.000000	2.099634	2.099634
O	2.099634	0.000000	2.099634
Pb	2.099634	2.099634	2.099634
Nb	0.000000	0.000000	4.199268
O	2.099634	2.099634	4.199268
O	0.000000	2.099634	6.298901
O	2.099634	0.000000	6.298901
Pb	2.099634	2.099634	6.298901
Nb	0.000000	4.199268	0.000000
O	2.099634	6.298901	0.000000
O	0.000000	6.298901	2.099634
O	2.099634	4.199268	2.099634
Pb	2.099634	6.298901	2.099634
Nb	0.000000	4.199268	4.199268
O	2.099634	6.298901	4.199268
O	0.000000	6.298901	6.298901
O	2.099634	4.199268	6.298901
Pb	2.099634	6.298901	6.298901
Nb	4.199268	0.000000	0.000000
O	6.298901	2.099634	0.000000
O	4.199268	2.099634	2.099634
O	6.298901	0.000000	2.099634
Pb	6.298901	2.099634	2.099634
Nb	4.199268	0.000000	4.199268
O	6.298901	2.099634	4.199268
O	4.199268	2.099634	6.298901
O	6.298901	0.000000	6.298901
Pb	6.298901	2.099634	6.298901
Nb	4.199268	4.199268	0.000000
O	6.298901	6.298901	0.000000
O	4.199268	6.298901	2.099634
O	6.298901	4.199268	2.099634
Pb	6.298901	6.298901	2.099634
Nb	4.199268	4.199268	4.199268
O	6.298901	6.298901	4.199268
O	4.199268	6.298901	6.298901
O	6.298901	4.199268	6.298901
Pb	6.298901	6.298901	6.298901
