40

B	0.000000	0.000000	0.000000
O	1.941430	0.000000	1.941430
O	0.000000	1.941430	1.941430
O	1.941430	1.941430	0.000000
Pt	1.941430	1.941430	1.941430
B	0.000000	0.000000	3.882858
O	1.941430	0.000000	5.824288
O	0.000000	1.941430	5.824288
O	1.941430	1.941430	3.882858
Pt	1.941430	1.941430	5.824288
B	0.000000	3.882858	0.000000
O	1.941430	3.882858	1.941430
O	0.000000	5.824288	1.941430
O	1.941430	5.824288	0.000000
Pt	1.941430	5.824288	1.941430
B	0.000000	3.882858	3.882858
O	1.941430	3.882858	5.824288
O	0.000000	5.824288	5.824288
O	1.941430	5.824288	3.882858
Pt	1.941430	5.824288	5.824288
B	3.882858	0.000000	0.000000
O	5.824288	0.000000	1.941430
O	3.882858	1.941430	1.941430
O	5.824288	1.941430	0.000000
Pt	5.824288	1.941430	1.941430
B	3.882858	0.000000	3.882858
O	5.824288	0.000000	5.824288
O	3.882858	1.941430	5.824288
O	5.824288	1.941430	3.882858
Pt	5.824288	1.941430	5.824288
B	3.882858	3.882858	0.000000
O	5.824288	3.882858	1.941430
O	3.882858	5.824288	1.941430
O	5.824288	5.824288	0.000000
Pt	5.824288	5.824288	1.941430
B	3.882858	3.882858	3.882858
O	5.824288	3.882858	5.824288
O	3.882858	5.824288	5.824288
O	5.824288	5.824288	3.882858
Pt	5.824288	5.824288	5.824288
