40

Ag	1.982085	1.982085	1.982085
O	1.982085	1.982085	0.000000
O	1.982085	0.000000	1.982085
O	0.000000	1.982085	1.982085
V	0.000000	0.000000	0.000000
Ag	1.982085	1.982085	5.946259
O	1.982085	1.982085	3.964173
O	1.982085	0.000000	5.946259
O	0.000000	1.982085	5.946259
V	0.000000	0.000000	3.964173
Ag	1.982085	5.946259	1.982085
O	1.982085	5.946259	0.000000
O	1.982085	3.964173	1.982085
O	0.000000	5.946259	1.982085
V	0.000000	3.964173	0.000000
Ag	1.982085	5.946259	5.946259
O	1.982085	5.946259	3.964173
O	1.982085	3.964173	5.946259
O	0.000000	5.946259	5.946259
V	0.000000	3.964173	3.964173
Ag	5.946259	1.982085	1.982085
O	5.946259	1.982085	0.000000
O	5.946259	0.000000	1.982085
O	3.964173	1.982085	1.982085
V	3.964173	0.000000	0.000000
Ag	5.946259	1.982085	5.946259
O	5.946259	1.982085	3.964173
O	5.946259	0.000000	5.946259
O	3.964173	1.982085	5.946259
V	3.964173	0.000000	3.964173
Ag	5.946259	5.946259	1.982085
O	5.946259	5.946259	0.000000
O	5.946259	3.964173	1.982085
O	3.964173	5.946259	1.982085
V	3.964173	3.964173	0.000000
Ag	5.946259	5.946259	5.946259
O	5.946259	5.946259	3.964173
O	5.946259	3.964173	5.946259
O	3.964173	5.946259	5.946259
V	3.964173	3.964173	3.964173
