40

Bi	2.072650	2.072650	2.072650
Li	0.000000	0.000000	0.000000
O	2.072650	2.072650	0.000000
O	2.072650	0.000000	2.072650
O	0.000000	2.072650	2.072650
Bi	2.072650	2.072650	6.217944
Li	0.000000	0.000000	4.145294
O	2.072650	2.072650	4.145294
O	2.072650	0.000000	6.217944
O	0.000000	2.072650	6.217944
Bi	2.072650	6.217944	2.072650
Li	0.000000	4.145294	0.000000
O	2.072650	6.217944	0.000000
O	2.072650	4.145294	2.072650
O	0.000000	6.217944	2.072650
Bi	2.072650	6.217944	6.217944
Li	0.000000	4.145294	4.145294
O	2.072650	6.217944	4.145294
O	2.072650	4.145294	6.217944
O	0.000000	6.217944	6.217944
Bi	6.217944	2.072650	2.072650
Li	4.145294	0.000000	0.000000
O	6.217944	2.072650	0.000000
O	6.217944	0.000000	2.072650
O	4.145294	2.072650	2.072650
Bi	6.217944	2.072650	6.217944
Li	4.145294	0.000000	4.145294
O	6.217944	2.072650	4.145294
O	6.217944	0.000000	6.217944
O	4.145294	2.072650	6.217944
Bi	6.217944	6.217944	2.072650
Li	4.145294	4.145294	0.000000
O	6.217944	6.217944	0.000000
O	6.217944	4.145294	2.072650
O	4.145294	6.217944	2.072650
Bi	6.217944	6.217944	6.217944
Li	4.145294	4.145294	4.145294
O	6.217944	6.217944	4.145294
O	6.217944	4.145294	6.217944
O	4.145294	6.217944	6.217944
