320

Mo	0.000000	0.000000	0.000000
Mo	4.088636	4.088636	0.000000
Mo	4.088636	0.000000	4.088636
Mo	0.000000	4.088636	4.088636
O	4.088636	0.000000	0.000000
O	0.000000	4.088636	0.000000
O	5.837670	3.322842	0.465304
O	6.428237	7.411478	0.465304
O	7.711968	1.749035	0.765794
O	4.553939	5.837670	0.765794
O	3.322842	3.623332	1.749035
O	0.765794	7.711968	1.749035
O	7.411478	3.623332	2.339601
O	4.854430	7.711968	2.339601
O	3.623332	1.749035	3.322842
O	0.465304	5.837670	3.322842
O	1.749035	3.322842	3.623332
O	2.339601	7.411478	3.623332
O	0.000000	0.000000	4.088636
O	4.088636	4.088636	4.088636
O	5.837670	0.765794	4.553939
O	6.428237	4.854430	4.553939
O	7.711968	2.339601	4.854430
O	4.553939	6.428237	4.854430
O	3.322842	0.465304	5.837670
O	0.765794	4.553939	5.837670
O	7.411478	0.465304	6.428237
O	4.854430	4.553939	6.428237
O	3.623332	2.339601	7.411478
O	0.465304	6.428237	7.411478
O	1.749035	0.765794	7.711968
O	2.339601	4.854430	7.711968
P	7.262999	3.174363	0.914273
P	5.002909	7.262999	0.914273
P	3.174363	3.174363	3.174363
P	0.914273	7.262999	3.174363
P	7.262999	0.914273	5.002909
P	5.002909	5.002909	5.002909
P	3.174363	0.914273	7.262999
P	0.914273	5.002909	7.262999
Mo	0.000000	0.000000	8.177272
Mo	4.088636	4.088636	8.177272
Mo	4.088636	0.000000	12.265907
Mo	0.000000	4.088636	12.265907
O	4.088636	0.000000	8.177272
O	0.000000	4.088636	8.177272
O	5.837670	3.322842	8.642575
O	6.428237	7.411478	8.642575
O	7.711968	1.749035	8.943065
O	4.553939	5.837670	8.943065
O	3.322842	3.623332	9.926306
O	0.765794	7.711968	9.926306
O	7.411478	3.623332	10.516873
O	4.854430	7.711968	10.516873
O	3.623332	1.749035	11.500114
O	0.465304	5.837670	11.500114
O	1.749035	3.322842	11.800604
O	2.339601	7.411478	11.800604
O	0.000000	0.000000	12.265907
O	4.088636	4.088636	12.265907
O	5.837670	0.765794	12.731211
O	6.428237	4.854430	12.731211
O	7.711968	2.339601	13.031701
O	4.553939	6.428237	13.031701
O	3.322842	0.465304	14.014942
O	0.765794	4.553939	14.014942
O	7.411478	0.465304	14.605509
O	4.854430	4.553939	14.605509
O	3.623332	2.339601	15.588750
O	0.465304	6.428237	15.588750
O	1.749035	0.765794	15.889240
O	2.339601	4.854430	15.889240
P	7.262999	3.174363	9.091544
P	5.002909	7.262999	9.091544
P	3.174363	3.174363	11.351635
P	0.914273	7.262999	11.351635
P	7.262999	0.914273	13.180180
P	5.002909	5.002909	13.180180
P	3.174363	0.914273	15.440271
P	0.914273	5.002909	15.440271
Mo	0.000000	8.177272	0.000000
Mo	4.088636	12.265907	0.000000
Mo	4.088636	8.177272	4.088636
Mo	0.000000	12.265907	4.088636
O	4.088636	8.177272	0.000000
O	0.000000	12.265907	0.000000
O	5.837670	11.500114	0.465304
O	6.428237	15.588750	0.465304
O	7.711968	9.926306	0.765794
O	4.553939	14.014942	0.765794
O	3.322842	11.800604	1.749035
O	0.765794	15.889240	1.749035
O	7.411478	11.800604	2.339601
O	4.854430	15.889240	2.339601
O	3.623332	9.926306	3.322842
O	0.465304	14.014942	3.322842
O	1.749035	11.500114	3.623332
O	2.339601	15.588750	3.623332
O	0.000000	8.177272	4.088636
O	4.088636	12.265907	4.088636
O	5.837670	8.943065	4.553939
O	6.428237	13.031701	4.553939
O	7.711968	10.516873	4.854430
O	4.553939	14.605509	4.854430
O	3.322842	8.642575	5.837670
O	0.765794	12.731211	5.837670
O	7.411478	8.642575	6.428237
O	4.854430	12.731211	6.428237
O	3.623332	10.516873	7.411478
O	0.465304	14.605509	7.411478
O	1.749035	8.943065	7.711968
O	2.339601	13.031701	7.711968
P	7.262999	11.351635	0.914273
P	5.002909	15.440271	0.914273
P	3.174363	11.351635	3.174363
P	0.914273	15.440271	3.174363
P	7.262999	9.091544	5.002909
P	5.002909	13.180180	5.002909
P	3.174363	9.091544	7.262999
P	0.914273	13.180180	7.262999
Mo	0.000000	8.177272	8.177272
Mo	4.088636	12.265907	8.177272
Mo	4.088636	8.177272	12.265907
Mo	0.000000	12.265907	12.265907
O	4.088636	8.177272	8.177272
O	0.000000	12.265907	8.177272
O	5.837670	11.500114	8.642575
O	6.428237	15.588750	8.642575
O	7.711968	9.926306	8.943065
O	4.553939	14.014942	8.943065
O	3.322842	11.800604	9.926306
O	0.765794	15.889240	9.926306
O	7.411478	11.800604	10.516873
O	4.854430	15.889240	10.516873
O	3.623332	9.926306	11.500114
O	0.465304	14.014942	11.500114
O	1.749035	11.500114	11.800604
O	2.339601	15.588750	11.800604
O	0.000000	8.177272	12.265907
O	4.088636	12.265907	12.265907
O	5.837670	8.943065	12.731211
O	6.428237	13.031701	12.731211
O	7.711968	10.516873	13.031701
O	4.553939	14.605509	13.031701
O	3.322842	8.642575	14.014942
O	0.765794	12.731211	14.014942
O	7.411478	8.642575	14.605509
O	4.854430	12.731211	14.605509
O	3.623332	10.516873	15.588750
O	0.465304	14.605509	15.588750
O	1.749035	8.943065	15.889240
O	2.339601	13.031701	15.889240
P	7.262999	11.351635	9.091544
P	5.002909	15.440271	9.091544
P	3.174363	11.351635	11.351635
P	0.914273	15.440271	11.351635
P	7.262999	9.091544	13.180180
P	5.002909	13.180180	13.180180
P	3.174363	9.091544	15.440271
P	0.914273	13.180180	15.440271
Mo	8.177272	0.000000	0.000000
Mo	12.265907	4.088636	0.000000
Mo	12.265907	0.000000	4.088636
Mo	8.177272	4.088636	4.088636
O	12.265907	0.000000	0.000000
O	8.177272	4.088636	0.000000
O	14.014942	3.322842	0.465304
O	14.605509	7.411478	0.465304
O	15.889240	1.749035	0.765794
O	12.731211	5.837670	0.765794
O	11.500114	3.623332	1.749035
O	8.943065	7.711968	1.749035
O	15.588750	3.623332	2.339601
O	13.031701	7.711968	2.339601
O	11.800604	1.749035	3.322842
O	8.642575	5.837670	3.322842
O	9.926306	3.322842	3.623332
O	10.516873	7.411478	3.623332
O	8.177272	0.000000	4.088636
O	12.265907	4.088636	4.088636
O	14.014942	0.765794	4.553939
O	14.605509	4.854430	4.553939
O	15.889240	2.339601	4.854430
O	12.731211	6.428237	4.854430
O	11.500114	0.465304	5.837670
O	8.943065	4.553939	5.837670
O	15.588750	0.465304	6.428237
O	13.031701	4.553939	6.428237
O	11.800604	2.339601	7.411478
O	8.642575	6.428237	7.411478
O	9.926306	0.765794	7.711968
O	10.516873	4.854430	7.711968
P	15.440271	3.174363	0.914273
P	13.180180	7.262999	0.914273
P	11.351635	3.174363	3.174363
P	9.091544	7.262999	3.174363
P	15.440271	0.914273	5.002909
P	13.180180	5.002909	5.002909
P	11.351635	0.914273	7.262999
P	9.091544	5.002909	7.262999
Mo	8.177272	0.000000	8.177272
Mo	12.265907	4.088636	8.177272
Mo	12.265907	0.000000	12.265907
Mo	8.177272	4.088636	12.265907
O	12.265907	0.000000	8.177272
O	8.177272	4.088636	8.177272
O	14.014942	3.322842	8.642575
O	14.605509	7.411478	8.642575
O	15.889240	1.749035	8.943065
O	12.731211	5.837670	8.943065
O	11.500114	3.623332	9.926306
O	8.943065	7.711968	9.926306
O	15.588750	3.623332	10.516873
O	13.031701	7.711968	10.516873
O	11.800604	1.749035	11.500114
O	8.642575	5.837670	11.500114
O	9.926306	3.322842	11.800604
O	10.516873	7.411478	11.800604
O	8.177272	0.000000	12.265907
O	12.265907	4.088636	12.265907
O	14.014942	0.765794	12.731211
O	14.605509	4.854430	12.731211
O	15.889240	2.339601	13.031701
O	12.731211	6.428237	13.031701
O	11.500114	0.465304	14.014942
O	8.943065	4.553939	14.014942
O	15.588750	0.465304	14.605509
O	13.031701	4.553939	14.605509
O	11.800604	2.339601	15.588750
O	8.642575	6.428237	15.588750
O	9.926306	0.765794	15.889240
O	10.516873	4.854430	15.889240
P	15.440271	3.174363	9.091544
P	13.180180	7.262999	9.091544
P	11.351635	3.174363	11.351635
P	9.091544	7.262999	11.351635
P	15.440271	0.914273	13.180180
P	13.180180	5.002909	13.180180
P	11.351635	0.914273	15.440271
P	9.091544	5.002909	15.440271
Mo	8.177272	8.177272	0.000000
Mo	12.265907	12.265907	0.000000
Mo	12.265907	8.177272	4.088636
Mo	8.177272	12.265907	4.088636
O	12.265907	8.177272	0.000000
O	8.177272	12.265907	0.000000
O	14.014942	11.500114	0.465304
O	14.605509	15.588750	0.465304
O	15.889240	9.926306	0.765794
O	12.731211	14.014942	0.765794
O	11.500114	11.800604	1.749035
O	8.943065	15.889240	1.749035
O	15.588750	11.800604	2.339601
O	13.031701	15.889240	2.339601
O	11.800604	9.926306	3.322842
O	8.642575	14.014942	3.322842
O	9.926306	11.500114	3.623332
O	10.516873	15.588750	3.623332
O	8.177272	8.177272	4.088636
O	12.265907	12.265907	4.088636
O	14.014942	8.943065	4.553939
O	14.605509	13.031701	4.553939
O	15.889240	10.516873	4.854430
O	12.731211	14.605509	4.854430
O	11.500114	8.642575	5.837670
O	8.943065	12.731211	5.837670
O	15.588750	8.642575	6.428237
O	13.031701	12.731211	6.428237
O	11.800604	10.516873	7.411478
O	8.642575	14.605509	7.411478
O	9.926306	8.943065	7.711968
O	10.516873	13.031701	7.711968
P	15.440271	11.351635	0.914273
P	13.180180	15.440271	0.914273
P	11.351635	11.351635	3.174363
P	9.091544	15.440271	3.174363
P	15.440271	9.091544	5.002909
P	13.180180	13.180180	5.002909
P	11.351635	9.091544	7.262999
P	9.091544	13.180180	7.262999
Mo	8.177272	8.177272	8.177272
Mo	12.265907	12.265907	8.177272
Mo	12.265907	8.177272	12.265907
Mo	8.177272	12.265907	12.265907
O	12.265907	8.177272	8.177272
O	8.177272	12.265907	8.177272
O	14.014942	11.500114	8.642575
O	14.605509	15.588750	8.642575
O	15.889240	9.926306	8.943065
O	12.731211	14.014942	8.943065
O	11.500114	11.800604	9.926306
O	8.943065	15.889240	9.926306
O	15.588750	11.800604	10.516873
O	13.031701	15.889240	10.516873
O	11.800604	9.926306	11.500114
O	8.642575	14.014942	11.500114
O	9.926306	11.500114	11.800604
O	10.516873	15.588750	11.800604
O	8.177272	8.177272	12.265907
O	12.265907	12.265907	12.265907
O	14.014942	8.943065	12.731211
O	14.605509	13.031701	12.731211
O	15.889240	10.516873	13.031701
O	12.731211	14.605509	13.031701
O	11.500114	8.642575	14.014942
O	8.943065	12.731211	14.014942
O	15.588750	8.642575	14.605509
O	13.031701	12.731211	14.605509
O	11.800604	10.516873	15.588750
O	8.642575	14.605509	15.588750
O	9.926306	8.943065	15.889240
O	10.516873	13.031701	15.889240
P	15.440271	11.351635	9.091544
P	13.180180	15.440271	9.091544
P	11.351635	11.351635	11.351635
P	9.091544	15.440271	11.351635
P	15.440271	9.091544	13.180180
P	13.180180	13.180180	13.180180
P	11.351635	9.091544	15.440271
P	9.091544	13.180180	15.440271
