40

O	0.000000	1.963951	1.963951
O	1.963951	0.000000	1.963951
O	1.963951	1.963951	0.000000
Os	1.963951	1.963951	1.963951
Se	0.000000	0.000000	0.000000
O	0.000000	1.963951	5.891853
O	1.963951	0.000000	5.891853
O	1.963951	1.963951	3.927902
Os	1.963951	1.963951	5.891853
Se	0.000000	0.000000	3.927902
O	0.000000	5.891853	1.963951
O	1.963951	3.927902	1.963951
O	1.963951	5.891853	0.000000
Os	1.963951	5.891853	1.963951
Se	0.000000	3.927902	0.000000
O	0.000000	5.891853	5.891853
O	1.963951	3.927902	5.891853
O	1.963951	5.891853	3.927902
Os	1.963951	5.891853	5.891853
Se	0.000000	3.927902	3.927902
O	3.927902	1.963951	1.963951
O	5.891853	0.000000	1.963951
O	5.891853	1.963951	0.000000
Os	5.891853	1.963951	1.963951
Se	3.927902	0.000000	0.000000
O	3.927902	1.963951	5.891853
O	5.891853	0.000000	5.891853
O	5.891853	1.963951	3.927902
Os	5.891853	1.963951	5.891853
Se	3.927902	0.000000	3.927902
O	3.927902	5.891853	1.963951
O	5.891853	3.927902	1.963951
O	5.891853	5.891853	0.000000
Os	5.891853	5.891853	1.963951
Se	3.927902	3.927902	0.000000
O	3.927902	5.891853	5.891853
O	5.891853	3.927902	5.891853
O	5.891853	5.891853	3.927902
Os	5.891853	5.891853	5.891853
Se	3.927902	3.927902	3.927902
