176

O	5.315510	3.758633	9.206734
O	3.189306	2.255180	5.524040
O	4.109658	5.463965	11.295330
O	1.983454	3.960512	7.612637
O	6.521362	2.053301	11.295330
O	7.727214	5.463965	9.206734
O	2.903806	2.053301	9.206734
O	4.109658	5.463965	7.118137
O	6.521362	2.053301	7.118137
O	5.601010	3.960512	5.524040
O	0.777602	0.549848	5.524040
O	4.395158	0.549848	3.435443
O	4.395158	0.549848	7.612637
O	1.983454	3.960512	3.435443
Sn	1.063102	3.006907	1.841347
Sn	3.189306	0.000000	1.841347
Sn	0.000000	0.000000	3.682693
Sn	0.000000	0.000000	0.000000
Tm	3.189306	0.000000	5.524040
Tm	1.063102	3.006907	5.524040
Tm	4.252408	3.006907	3.682693
Tm	4.252408	3.006907	7.365387
O	5.315510	3.758633	16.572120
O	3.189306	2.255180	12.889427
O	4.109658	5.463965	18.660717
O	1.983454	3.960512	14.978024
O	6.521362	2.053301	18.660717
O	7.727214	5.463965	16.572120
O	2.903806	2.053301	16.572120
O	4.109658	5.463965	14.483523
O	6.521362	2.053301	14.483523
O	5.601010	3.960512	12.889427
O	0.777602	0.549848	12.889427
O	4.395158	0.549848	10.800830
O	4.395158	0.549848	14.978024
O	1.983454	3.960512	10.800830
Sn	1.063102	3.006907	9.206734
Sn	3.189306	0.000000	9.206734
Sn	0.000000	0.000000	11.048080
Sn	0.000000	0.000000	7.365387
Tm	3.189306	0.000000	12.889427
Tm	1.063102	3.006907	12.889427
Tm	4.252408	3.006907	11.048080
Tm	4.252408	3.006907	14.730774
O	7.441714	9.772446	12.889427
O	5.315510	8.268993	9.206734
O	6.235862	11.477779	14.978024
O	4.109658	9.974325	11.295330
O	8.647566	8.067114	14.978024
O	9.853418	11.477779	12.889427
O	5.030010	8.067114	12.889427
O	6.235862	11.477779	10.800830
O	8.647566	8.067114	10.800830
O	7.727214	9.974325	9.206734
O	2.903806	6.563661	9.206734
O	6.521362	6.563661	7.118137
O	6.521362	6.563661	11.295330
O	4.109658	9.974325	7.118137
Sn	3.189306	9.020720	5.524040
Sn	5.315510	6.013813	5.524040
Sn	2.126204	6.013813	7.365387
Sn	2.126204	6.013813	3.682693
Tm	5.315510	6.013813	9.206734
Tm	3.189306	9.020720	9.206734
Tm	6.378612	9.020720	7.365387
Tm	6.378612	9.020720	11.048080
O	7.441714	9.772446	20.254814
O	5.315510	8.268993	16.572120
O	6.235862	11.477779	22.343411
O	4.109658	9.974325	18.660717
O	8.647566	8.067114	22.343411
O	9.853418	11.477779	20.254814
O	5.030010	8.067114	20.254814
O	6.235862	11.477779	18.166217
O	8.647566	8.067114	18.166217
O	7.727214	9.974325	16.572120
O	2.903806	6.563661	16.572120
O	6.521362	6.563661	14.483523
O	6.521362	6.563661	18.660717
O	4.109658	9.974325	14.483523
Sn	3.189306	9.020720	12.889427
Sn	5.315510	6.013813	12.889427
Sn	2.126204	6.013813	14.730774
Sn	2.126204	6.013813	11.048080
Tm	5.315510	6.013813	16.572120
Tm	3.189306	9.020720	16.572120
Tm	6.378612	9.020720	14.730774
Tm	6.378612	9.020720	18.413467
O	11.694122	3.758633	12.889427
O	9.567918	2.255180	9.206734
O	10.488270	5.463965	14.978024
O	8.362066	3.960512	11.295330
O	12.899974	2.053301	14.978024
O	14.105826	5.463965	12.889427
O	9.282418	2.053301	12.889427
O	10.488270	5.463965	10.800830
O	12.899974	2.053301	10.800830
O	11.979622	3.960512	9.206734
O	7.156214	0.549848	9.206734
O	10.773770	0.549848	7.118137
O	10.773770	0.549848	11.295330
O	8.362066	3.960512	7.118137
Sn	7.441714	3.006907	5.524040
Sn	9.567918	0.000000	5.524040
Sn	6.378612	0.000000	7.365387
Sn	6.378612	0.000000	3.682693
Tm	9.567918	0.000000	9.206734
Tm	7.441714	3.006907	9.206734
Tm	10.631020	3.006907	7.365387
Tm	10.631020	3.006907	11.048080
O	11.694122	3.758633	20.254814
O	9.567918	2.255180	16.572120
O	10.488270	5.463965	22.343411
O	8.362066	3.960512	18.660717
O	12.899974	2.053301	22.343411
O	14.105826	5.463965	20.254814
O	9.282418	2.053301	20.254814
O	10.488270	5.463965	18.166217
O	12.899974	2.053301	18.166217
O	11.979622	3.960512	16.572120
O	7.156214	0.549848	16.572120
O	10.773770	0.549848	14.483523
O	10.773770	0.549848	18.660717
O	8.362066	3.960512	14.483523
Sn	7.441714	3.006907	12.889427
Sn	9.567918	0.000000	12.889427
Sn	6.378612	0.000000	14.730774
Sn	6.378612	0.000000	11.048080
Tm	9.567918	0.000000	16.572120
Tm	7.441714	3.006907	16.572120
Tm	10.631020	3.006907	14.730774
Tm	10.631020	3.006907	18.413467
O	13.820326	9.772446	16.572120
O	11.694122	8.268993	12.889427
O	12.614474	11.477779	18.660717
O	10.488270	9.974325	14.978024
O	15.026178	8.067114	18.660717
O	16.232030	11.477779	16.572120
O	11.408622	8.067114	16.572120
O	12.614474	11.477779	14.483523
O	15.026178	8.067114	14.483523
O	14.105826	9.974325	12.889427
O	9.282418	6.563661	12.889427
O	12.899974	6.563661	10.800830
O	12.899974	6.563661	14.978024
O	10.488270	9.974325	10.800830
Sn	9.567918	9.020720	9.206734
Sn	11.694122	6.013813	9.206734
Sn	8.504816	6.013813	11.048080
Sn	8.504816	6.013813	7.365387
Tm	11.694122	6.013813	12.889427
Tm	9.567918	9.020720	12.889427
Tm	12.757224	9.020720	11.048080
Tm	12.757224	9.020720	14.730774
O	13.820326	9.772446	23.937507
O	11.694122	8.268993	20.254814
O	12.614474	11.477779	26.026104
O	10.488270	9.974325	22.343411
O	15.026178	8.067114	26.026104
O	16.232030	11.477779	23.937507
O	11.408622	8.067114	23.937507
O	12.614474	11.477779	21.848910
O	15.026178	8.067114	21.848910
O	14.105826	9.974325	20.254814
O	9.282418	6.563661	20.254814
O	12.899974	6.563661	18.166217
O	12.899974	6.563661	22.343411
O	10.488270	9.974325	18.166217
Sn	9.567918	9.020720	16.572120
Sn	11.694122	6.013813	16.572120
Sn	8.504816	6.013813	18.413467
Sn	8.504816	6.013813	14.730774
Tm	11.694122	6.013813	20.254814
Tm	9.567918	9.020720	20.254814
Tm	12.757224	9.020720	18.413467
Tm	12.757224	9.020720	22.096160
