112

Ba	0.000000	0.000000	0.000000
Ba	2.585853	-2.585404	-2.585404
Eu	-1.292927	-1.292702	-3.878106
Eu	3.878780	1.292702	-1.292702
Eu	6.464633	-1.292702	-1.292702
Eu	1.292927	1.292702	-3.878106
O	4.049563	-1.121143	-1.121143
O	-1.122143	1.121143	-4.049665
O	1.122143	-1.121143	-4.049665
O	1.463710	1.464261	-1.464261
O	6.293850	1.121143	-1.121143
O	1.463710	3.706547	-3.706547
O	3.707996	3.706547	-1.464261
O	3.707996	1.464261	-3.706547
Ba	5.171707	5.170808	0.000000
Ba	7.757560	2.585404	-2.585404
Eu	3.878780	3.878106	-3.878106
Eu	9.050486	6.463510	-1.292702
Eu	11.636340	3.878106	-1.292702
Eu	6.464633	6.463510	-3.878106
O	9.221270	4.049665	-1.121143
O	4.049564	6.291951	-4.049665
O	6.293850	4.049665	-4.049665
O	6.635417	6.635069	-1.464261
O	11.465556	6.291951	-1.121143
O	6.635417	8.877355	-3.706547
O	8.879703	8.877355	-1.464261
O	8.879703	6.635069	-3.706547
Ba	-5.171707	0.000000	-5.170808
Ba	-2.585853	-2.585404	-7.756212
Eu	-6.464633	-1.292702	-9.048914
Eu	-1.292927	1.292702	-6.463510
Eu	1.292927	-1.292702	-6.463510
Eu	-3.878780	1.292702	-9.048914
O	-1.122143	-1.121143	-6.291951
O	-6.293850	1.121143	-9.220473
O	-4.049563	-1.121143	-9.220473
O	-3.707996	1.464261	-6.635069
O	1.122143	1.121143	-6.291951
O	-3.707996	3.706547	-8.877355
O	-1.463710	3.706547	-6.635069
O	-1.463710	1.464261	-8.877355
Ba	0.000000	5.170808	-5.170808
Ba	2.585853	2.585404	-7.756212
Eu	-1.292927	3.878106	-9.048914
Eu	3.878780	6.463510	-6.463510
Eu	6.464633	3.878106	-6.463510
Eu	1.292927	6.463510	-9.048914
O	4.049563	4.049665	-6.291951
O	-1.122143	6.291951	-9.220473
O	1.122143	4.049665	-9.220473
O	1.463710	6.635069	-6.635069
O	6.293850	6.291951	-6.291951
O	1.463710	8.877355	-8.877355
O	3.707996	8.877355	-6.635069
O	3.707996	6.635069	-8.877355
Ba	5.171707	-5.170808	0.000000
Ba	7.757560	-7.756212	-2.585404
Eu	3.878780	-6.463510	-3.878106
Eu	9.050486	-3.878106	-1.292702
Eu	11.636340	-6.463510	-1.292702
Eu	6.464633	-3.878106	-3.878106
O	9.221270	-6.291951	-1.121143
O	4.049564	-4.049665	-4.049665
O	6.293850	-6.291951	-4.049665
O	6.635417	-3.706547	-1.464261
O	11.465556	-4.049665	-1.121143
O	6.635417	-1.464261	-3.706547
O	8.879703	-1.464261	-1.464261
O	8.879703	-3.706547	-3.706547
Ba	10.343413	0.000000	0.000000
Ba	12.929266	-2.585404	-2.585404
Eu	9.050486	-1.292702	-3.878106
Eu	14.222193	1.292702	-1.292702
Eu	16.808046	-1.292702	-1.292702
Eu	11.636340	1.292702	-3.878106
O	14.392977	-1.121143	-1.121143
O	9.221270	1.121143	-4.049665
O	11.465556	-1.121143	-4.049665
O	11.807123	1.464261	-1.464261
O	16.637263	1.121143	-1.121143
O	11.807123	3.706547	-3.706547
O	14.051409	3.706547	-1.464261
O	14.051409	1.464261	-3.706547
Ba	0.000000	-5.170808	-5.170808
Ba	2.585853	-7.756212	-7.756212
Eu	-1.292927	-6.463510	-9.048914
Eu	3.878780	-3.878106	-6.463510
Eu	6.464633	-6.463510	-6.463510
Eu	1.292927	-3.878106	-9.048914
O	4.049563	-6.291951	-6.291951
O	-1.122143	-4.049665	-9.220473
O	1.122143	-6.291951	-9.220473
O	1.463710	-3.706547	-6.635069
O	6.293850	-4.049665	-6.291951
O	1.463710	-1.464261	-8.877355
O	3.707996	-1.464261	-6.635069
O	3.707996	-3.706547	-8.877355
Ba	5.171707	0.000000	-5.170808
Ba	7.757560	-2.585404	-7.756212
Eu	3.878780	-1.292702	-9.048914
Eu	9.050486	1.292702	-6.463510
Eu	11.636340	-1.292702	-6.463510
Eu	6.464633	1.292702	-9.048914
O	9.221270	-1.121143	-6.291951
O	4.049564	1.121143	-9.220473
O	6.293850	-1.121143	-9.220473
O	6.635417	1.464261	-6.635069
O	11.465556	1.121143	-6.291951
O	6.635417	3.706547	-8.877355
O	8.879703	3.706547	-6.635069
O	8.879703	1.464261	-8.877355
