112

Ba	0.000000	0.000000	0.000000
Ba	2.556103	-2.556361	-2.556361
Eu	-1.278056	-1.278180	-3.834551
Eu	3.834159	1.278180	-1.278180
Eu	6.390263	-1.278180	-1.278180
Eu	1.278056	1.278180	-3.834551
O	3.997584	-1.114243	-1.114243
O	-1.114622	1.114243	-3.998488
O	1.114622	-1.114243	-3.998488
O	1.441481	1.442118	-1.442118
O	6.226838	1.114243	-1.114243
O	1.441481	3.670614	-3.670614
O	3.670735	3.670614	-1.442118
O	3.670735	1.442118	-3.670614
Ba	5.112213	5.112729	0.000000
Ba	7.668316	2.556368	-2.556361
Eu	3.834156	3.834549	-3.834551
Eu	8.946372	6.390909	-1.278180
Eu	11.502475	3.834549	-1.278180
Eu	6.390269	6.390909	-3.834551
O	9.109796	3.998486	-1.114243
O	3.997590	6.226972	-3.998488
O	6.226835	3.998486	-3.998488
O	6.553693	6.554847	-1.442118
O	11.339051	6.226972	-1.114243
O	6.553693	8.783343	-3.670614
O	8.782948	8.783343	-1.442118
O	8.782948	6.554847	-3.670614
Ba	-5.112213	0.000000	-5.112729
Ba	-2.556110	-2.556361	-7.669090
Eu	-6.390269	-1.278180	-8.947280
Eu	-1.278053	1.278180	-6.390909
Eu	1.278050	-1.278180	-6.390909
Eu	-3.834156	1.278180	-8.947280
O	-1.114629	-1.114243	-6.226972
O	-6.226835	1.114243	-9.111217
O	-3.997590	-1.114243	-9.111217
O	-3.670732	1.442118	-6.554847
O	1.114626	1.114243	-6.226972
O	-3.670732	3.670614	-8.783343
O	-1.441477	3.670614	-6.554847
O	-1.441477	1.442118	-8.783343
Ba	0.000000	5.112729	-5.112729
Ba	2.556103	2.556368	-7.669090
Eu	-1.278056	3.834549	-8.947280
Eu	3.834159	6.390909	-6.390909
Eu	6.390263	3.834549	-6.390909
Eu	1.278056	6.390909	-8.947280
O	3.997584	3.998486	-6.226972
O	-1.114622	6.226972	-9.111217
O	1.114622	3.998486	-9.111217
O	1.441481	6.554847	-6.554847
O	6.226838	6.226972	-6.226972
O	1.441481	8.783343	-8.783343
O	3.670735	8.783343	-6.554847
O	3.670735	6.554847	-8.783343
Ba	5.112213	-5.112729	0.000000
Ba	7.668316	-7.669090	-2.556361
Eu	3.834156	-6.390909	-3.834551
Eu	8.946372	-3.834549	-1.278180
Eu	11.502475	-6.390909	-1.278180
Eu	6.390269	-3.834549	-3.834551
O	9.109796	-6.226972	-1.114243
O	3.997590	-3.998486	-3.998488
O	6.226835	-6.226972	-3.998488
O	6.553693	-3.670612	-1.442118
O	11.339051	-3.998486	-1.114243
O	6.553693	-1.442116	-3.670614
O	8.782948	-1.442116	-1.442118
O	8.782948	-3.670612	-3.670614
Ba	10.224425	0.000000	0.000000
Ba	12.780528	-2.556361	-2.556361
Eu	8.946369	-1.278180	-3.834551
Eu	14.058585	1.278180	-1.278180
Eu	16.614688	-1.278180	-1.278180
Eu	11.502482	1.278180	-3.834551
O	14.222009	-1.114243	-1.114243
O	9.109803	1.114243	-3.998488
O	11.339047	-1.114243	-3.998488
O	11.665906	1.442118	-1.442118
O	16.451263	1.114243	-1.114243
O	11.665906	3.670614	-3.670614
O	13.895160	3.670614	-1.442118
O	13.895160	1.442118	-3.670614
Ba	0.000000	-5.112729	-5.112729
Ba	2.556103	-7.669090	-7.669090
Eu	-1.278056	-6.390909	-8.947280
Eu	3.834159	-3.834549	-6.390909
Eu	6.390263	-6.390909	-6.390909
Eu	1.278056	-3.834549	-8.947280
O	3.997584	-6.226972	-6.226972
O	-1.114622	-3.998486	-9.111217
O	1.114622	-6.226972	-9.111217
O	1.441481	-3.670612	-6.554847
O	6.226838	-3.998486	-6.226972
O	1.441481	-1.442116	-8.783343
O	3.670735	-1.442116	-6.554847
O	3.670735	-3.670612	-8.783343
Ba	5.112213	0.000000	-5.112729
Ba	7.668316	-2.556361	-7.669090
Eu	3.834156	-1.278180	-8.947280
Eu	8.946372	1.278180	-6.390909
Eu	11.502475	-1.278180	-6.390909
Eu	6.390269	1.278180	-8.947280
O	9.109796	-1.114243	-6.226972
O	3.997590	1.114243	-9.111217
O	6.226835	-1.114243	-9.111217
O	6.553693	1.442118	-6.554847
O	11.339051	1.114243	-6.226972
O	6.553693	3.670614	-8.783343
O	8.782948	3.670614	-6.554847
O	8.782948	1.442118	-8.783343
