112

Co	0.000000	0.000000	0.000000
Co	2.306713	-2.306975	-2.306975
Er	-1.153357	-1.153488	-3.460463
Er	3.460070	1.153488	-1.153488
Er	5.766783	-1.153488	-1.153488
Er	1.153357	1.153488	-3.460463
O	3.516333	-1.096828	-1.096828
O	-1.097093	1.096828	-3.517123
O	1.097093	-1.096828	-3.517123
O	1.209620	1.210147	-1.210147
O	5.710519	1.096828	-1.096828
O	1.209620	3.403804	-3.403804
O	3.403806	3.403804	-1.210147
O	3.403806	1.210147	-3.403804
Co	4.613426	4.613951	0.000000
Co	6.920139	2.306975	-2.306975
Er	3.460070	3.460463	-3.460463
Er	8.073496	5.767439	-1.153488
Er	10.380209	3.460463	-1.153488
Er	5.766783	5.767439	-3.460463
O	8.129759	3.517123	-1.096828
O	3.516333	5.710779	-3.517123
O	5.710519	3.517123	-3.517123
O	5.823046	5.824098	-1.210147
O	10.323945	5.710779	-1.096828
O	5.823046	8.017755	-3.403804
O	8.017232	8.017755	-1.210147
O	8.017232	5.824098	-3.403804
Co	-4.613426	0.000000	-4.613951
Co	-2.306713	-2.306975	-6.920926
Er	-5.766783	-1.153488	-8.074414
Er	-1.153357	1.153488	-5.767439
Er	1.153357	-1.153488	-5.767439
Er	-3.460070	1.153488	-8.074414
O	-1.097093	-1.096828	-5.710779
O	-5.710519	1.096828	-8.131073
O	-3.516333	-1.096828	-8.131073
O	-3.403806	1.210147	-5.824098
O	1.097093	1.096828	-5.710779
O	-3.403806	3.403804	-8.017755
O	-1.209620	3.403804	-5.824098
O	-1.209620	1.210147	-8.017755
Co	0.000000	4.613951	-4.613951
Co	2.306713	2.306975	-6.920926
Er	-1.153357	3.460463	-8.074414
Er	3.460070	5.767439	-5.767439
Er	5.766783	3.460463	-5.767439
Er	1.153357	5.767439	-8.074414
O	3.516333	3.517123	-5.710779
O	-1.097093	5.710779	-8.131073
O	1.097093	3.517123	-8.131073
O	1.209620	5.824098	-5.824098
O	5.710519	5.710779	-5.710779
O	1.209620	8.017755	-8.017755
O	3.403806	8.017755	-5.824098
O	3.403806	5.824098	-8.017755
Co	4.613426	-4.613951	0.000000
Co	6.920139	-6.920926	-2.306975
Er	3.460070	-5.767439	-3.460463
Er	8.073496	-3.460463	-1.153488
Er	10.380209	-5.767439	-1.153488
Er	5.766783	-3.460463	-3.460463
O	8.129759	-5.710779	-1.096828
O	3.516333	-3.517123	-3.517123
O	5.710519	-5.710779	-3.517123
O	5.823046	-3.403804	-1.210147
O	10.323945	-3.517123	-1.096828
O	5.823046	-1.210147	-3.403804
O	8.017232	-1.210147	-1.210147
O	8.017232	-3.403804	-3.403804
Co	9.226852	0.000000	0.000000
Co	11.533565	-2.306975	-2.306975
Er	8.073496	-1.153488	-3.460463
Er	12.686922	1.153488	-1.153488
Er	14.993635	-1.153488	-1.153488
Er	10.380209	1.153488	-3.460463
O	12.743185	-1.096828	-1.096828
O	8.129759	1.096828	-3.517123
O	10.323945	-1.096828	-3.517123
O	10.436472	1.210147	-1.210147
O	14.937371	1.096828	-1.096828
O	10.436472	3.403804	-3.403804
O	12.630658	3.403804	-1.210147
O	12.630658	1.210147	-3.403804
Co	0.000000	-4.613951	-4.613951
Co	2.306713	-6.920926	-6.920926
Er	-1.153357	-5.767439	-8.074414
Er	3.460070	-3.460463	-5.767439
Er	5.766783	-5.767439	-5.767439
Er	1.153357	-3.460463	-8.074414
O	3.516333	-5.710779	-5.710779
O	-1.097093	-3.517123	-8.131073
O	1.097093	-5.710779	-8.131073
O	1.209620	-3.403804	-5.824098
O	5.710519	-3.517123	-5.710779
O	1.209620	-1.210147	-8.017755
O	3.403806	-1.210147	-5.824098
O	3.403806	-3.403804	-8.017755
Co	4.613426	0.000000	-4.613951
Co	6.920139	-2.306975	-6.920926
Er	3.460070	-1.153488	-8.074414
Er	8.073496	1.153488	-5.767439
Er	10.380209	-1.153488	-5.767439
Er	5.766783	1.153488	-8.074414
O	8.129759	-1.096828	-5.710779
O	3.516333	1.096828	-8.131073
O	5.710519	-1.096828	-8.131073
O	5.823046	1.210147	-5.824098
O	10.323945	1.096828	-5.710779
O	5.823046	3.403804	-8.017755
O	8.017232	3.403804	-5.824098
O	8.017232	1.210147	-8.017755
