112

Co	0.000000	0.000000	0.000000
Co	2.295374	-2.295607	-2.295607
Er	-1.147692	-1.147803	-3.443400
Er	5.738440	-1.147803	-1.147803
Er	1.147692	1.147803	-3.443400
Er	3.443066	1.147803	-1.147803
O	3.495668	-1.094953	-1.094953
O	-1.095080	1.094953	-3.496251
O	1.095080	-1.094953	-3.496251
O	1.200294	1.200654	-1.200654
O	5.685838	1.094953	-1.094953
O	1.200294	3.390550	-3.390550
O	3.390464	3.390550	-1.200654
O	3.390464	1.200654	-3.390550
Co	4.590754	4.591205	0.000000
Co	6.886128	2.295598	-2.295607
Er	3.443062	3.443401	-3.443400
Er	10.329194	3.443401	-1.147803
Er	5.738446	5.739008	-3.443400
Er	8.033820	5.739008	-1.147803
O	8.086422	3.496252	-1.094953
O	3.495674	5.686157	-3.496251
O	5.685834	3.496252	-3.496251
O	5.791048	5.791859	-1.200654
O	10.276592	5.686157	-1.094953
O	5.791048	7.981754	-3.390550
O	7.981218	7.981754	-1.200654
O	7.981218	5.791859	-3.390550
Co	-4.590754	0.000000	-4.591205
Co	-2.295380	-2.295607	-6.886811
Er	-5.738446	-1.147803	-8.034605
Er	1.147686	-1.147803	-5.739008
Er	-3.443062	1.147803	-8.034605
Er	-1.147688	1.147803	-5.739008
O	-1.095086	-1.094953	-5.686157
O	-5.685834	1.094953	-8.087456
O	-3.495674	-1.094953	-8.087456
O	-3.390460	1.200654	-5.791859
O	1.095084	1.094953	-5.686157
O	-3.390460	3.390550	-7.981754
O	-1.200290	3.390550	-5.791859
O	-1.200290	1.200654	-7.981754
Co	0.000000	4.591205	-4.591205
Co	2.295374	2.295598	-6.886811
Er	-1.147692	3.443401	-8.034605
Er	5.738440	3.443401	-5.739008
Er	1.147692	5.739008	-8.034605
Er	3.443066	5.739008	-5.739008
O	3.495668	3.496252	-5.686157
O	-1.095080	5.686157	-8.087456
O	1.095080	3.496252	-8.087456
O	1.200294	5.791859	-5.791859
O	5.685838	5.686157	-5.686157
O	1.200294	7.981754	-7.981754
O	3.390464	7.981754	-5.791859
O	3.390464	5.791859	-7.981754
Co	4.590754	-4.591205	0.000000
Co	6.886128	-6.886811	-2.295607
Er	3.443062	-5.739008	-3.443400
Er	10.329194	-5.739008	-1.147803
Er	5.738446	-3.443401	-3.443400
Er	8.033820	-3.443401	-1.147803
O	8.086422	-5.686157	-1.094953
O	3.495674	-3.496252	-3.496251
O	5.685834	-5.686157	-3.496251
O	5.791048	-3.390550	-1.200654
O	10.276592	-3.496252	-1.094953
O	5.791048	-1.200655	-3.390550
O	7.981218	-1.200655	-1.200654
O	7.981218	-3.390550	-3.390550
Co	9.181508	0.000000	0.000000
Co	11.476883	-2.295607	-2.295607
Er	8.033816	-1.147803	-3.443400
Er	14.919949	-1.147803	-1.147803
Er	10.329200	1.147803	-3.443400
Er	12.624574	1.147803	-1.147803
O	12.677177	-1.094953	-1.094953
O	8.086428	1.094953	-3.496251
O	10.276589	-1.094953	-3.496251
O	10.381802	1.200654	-1.200654
O	14.867347	1.094953	-1.094953
O	10.381803	3.390550	-3.390550
O	12.571972	3.390550	-1.200654
O	12.571973	1.200654	-3.390550
Co	0.000000	-4.591205	-4.591205
Co	2.295374	-6.886811	-6.886811
Er	-1.147692	-5.739008	-8.034605
Er	5.738440	-5.739008	-5.739008
Er	1.147692	-3.443401	-8.034605
Er	3.443066	-3.443401	-5.739008
O	3.495668	-5.686157	-5.686157
O	-1.095080	-3.496252	-8.087456
O	1.095080	-5.686157	-8.087456
O	1.200294	-3.390550	-5.791859
O	5.685838	-3.496252	-5.686157
O	1.200294	-1.200655	-7.981754
O	3.390464	-1.200655	-5.791859
O	3.390464	-3.390550	-7.981754
Co	4.590754	0.000000	-4.591205
Co	6.886128	-2.295607	-6.886811
Er	3.443062	-1.147803	-8.034605
Er	10.329194	-1.147803	-5.739008
Er	5.738446	1.147803	-8.034605
Er	8.033820	1.147803	-5.739008
O	8.086422	-1.094953	-5.686157
O	3.495674	1.094953	-8.087456
O	5.685834	-1.094953	-8.087456
O	5.791048	1.200654	-5.791859
O	10.276592	1.094953	-5.686157
O	5.791048	3.390550	-7.981754
O	7.981218	3.390550	-5.791859
O	7.981218	1.200654	-7.981754
