112

Co	0.000000	0.000000	0.000000
Co	2.295376	-2.295607	-2.295607
Er	-1.147693	-1.147804	-3.443401
Er	5.738445	-1.147804	-1.147804
Er	1.147693	1.147804	-3.443401
Er	3.443069	1.147804	-1.147804
O	3.495672	-1.094952	-1.094952
O	-1.095080	1.094952	-3.496253
O	1.095080	-1.094952	-3.496253
O	1.200296	1.200655	-1.200655
O	5.685841	1.094952	-1.094952
O	1.200296	3.390550	-3.390550
O	3.390466	3.390550	-1.200655
O	3.390466	1.200655	-3.390550
Co	4.590758	4.591206	0.000000
Co	6.886134	2.295598	-2.295607
Er	3.443065	3.443402	-3.443401
Er	10.329202	3.443402	-1.147804
Er	5.738451	5.739009	-3.443401
Er	8.033827	5.739009	-1.147804
O	8.086430	3.496254	-1.094952
O	3.495678	5.686158	-3.496253
O	5.685838	3.496254	-3.496253
O	5.791054	5.791861	-1.200655
O	10.276599	5.686158	-1.094952
O	5.791054	7.981755	-3.390550
O	7.981223	7.981755	-1.200655
O	7.981223	5.791861	-3.390550
Co	-4.590758	0.000000	-4.591206
Co	-2.295382	-2.295607	-6.886813
Er	-5.738451	-1.147804	-8.034607
Er	1.147687	-1.147804	-5.739009
Er	-3.443065	1.147804	-8.034607
Er	-1.147689	1.147804	-5.739009
O	-1.095086	-1.094952	-5.686158
O	-5.685838	1.094952	-8.087459
O	-3.495678	-1.094952	-8.087459
O	-3.390462	1.200655	-5.791861
O	1.095084	1.094952	-5.686158
O	-3.390462	3.390550	-7.981755
O	-1.200292	3.390550	-5.791861
O	-1.200292	1.200655	-7.981755
Co	0.000000	4.591206	-4.591206
Co	2.295376	2.295598	-6.886813
Er	-1.147693	3.443402	-8.034607
Er	5.738445	3.443402	-5.739009
Er	1.147693	5.739009	-8.034607
Er	3.443069	5.739009	-5.739009
O	3.495672	3.496254	-5.686158
O	-1.095080	5.686158	-8.087459
O	1.095080	3.496254	-8.087459
O	1.200296	5.791861	-5.791861
O	5.685841	5.686158	-5.686158
O	1.200296	7.981755	-7.981755
O	3.390466	7.981755	-5.791861
O	3.390466	5.791861	-7.981755
Co	4.590758	-4.591206	0.000000
Co	6.886134	-6.886813	-2.295607
Er	3.443065	-5.739010	-3.443401
Er	10.329202	-5.739010	-1.147804
Er	5.738451	-3.443402	-3.443401
Er	8.033827	-3.443402	-1.147804
O	8.086430	-5.686158	-1.094952
O	3.495678	-3.496254	-3.496253
O	5.685838	-5.686158	-3.496253
O	5.791054	-3.390550	-1.200655
O	10.276599	-3.496254	-1.094952
O	5.791054	-1.200656	-3.390550
O	7.981223	-1.200656	-1.200655
O	7.981223	-3.390550	-3.390550
Co	9.181516	0.000000	0.000000
Co	11.476891	-2.295607	-2.295607
Er	8.033823	-1.147804	-3.443401
Er	14.919960	-1.147804	-1.147804
Er	10.329208	1.147804	-3.443401
Er	12.624584	1.147804	-1.147804
O	12.677187	-1.094952	-1.094952
O	8.086436	1.094952	-3.496253
O	10.276595	-1.094952	-3.496253
O	10.381812	1.200655	-1.200655
O	14.867357	1.094952	-1.094952
O	10.381812	3.390550	-3.390550
O	12.571981	3.390550	-1.200655
O	12.571981	1.200655	-3.390550
Co	0.000000	-4.591206	-4.591206
Co	2.295376	-6.886813	-6.886813
Er	-1.147693	-5.739010	-8.034607
Er	5.738445	-5.739010	-5.739009
Er	1.147693	-3.443402	-8.034607
Er	3.443069	-3.443402	-5.739009
O	3.495672	-5.686158	-5.686158
O	-1.095080	-3.496254	-8.087459
O	1.095080	-5.686158	-8.087459
O	1.200296	-3.390550	-5.791861
O	5.685841	-3.496254	-5.686158
O	1.200296	-1.200656	-7.981755
O	3.390466	-1.200656	-5.791861
O	3.390466	-3.390550	-7.981755
Co	4.590758	0.000000	-4.591206
Co	6.886134	-2.295607	-6.886813
Er	3.443065	-1.147804	-8.034607
Er	10.329202	-1.147804	-5.739009
Er	5.738451	1.147804	-8.034607
Er	8.033827	1.147804	-5.739009
O	8.086430	-1.094952	-5.686158
O	3.495678	1.094952	-8.087459
O	5.685838	-1.094952	-8.087459
O	5.791054	1.200655	-5.791861
O	10.276599	1.094952	-5.686158
O	5.791054	3.390550	-7.981755
O	7.981223	3.390550	-5.791861
O	7.981223	1.200655	-7.981755
