40

O	0.000000	2.024226	2.024226
O	2.024226	0.000000	2.024226
O	2.024226	2.024226	0.000000
Pb	0.000000	0.000000	0.000000
W	2.024226	2.024226	2.024226
O	0.000000	2.024226	6.072677
O	2.024226	0.000000	6.072677
O	2.024226	2.024226	4.048451
Pb	0.000000	0.000000	4.048451
W	2.024226	2.024226	6.072677
O	0.000000	6.072677	2.024226
O	2.024226	4.048451	2.024226
O	2.024226	6.072677	0.000000
Pb	0.000000	4.048451	0.000000
W	2.024226	6.072677	2.024226
O	0.000000	6.072677	6.072677
O	2.024226	4.048451	6.072677
O	2.024226	6.072677	4.048451
Pb	0.000000	4.048451	4.048451
W	2.024226	6.072677	6.072677
O	4.048451	2.024226	2.024226
O	6.072677	0.000000	2.024226
O	6.072677	2.024226	0.000000
Pb	4.048451	0.000000	0.000000
W	6.072677	2.024226	2.024226
O	4.048451	2.024226	6.072677
O	6.072677	0.000000	6.072677
O	6.072677	2.024226	4.048451
Pb	4.048451	0.000000	4.048451
W	6.072677	2.024226	6.072677
O	4.048451	6.072677	2.024226
O	6.072677	4.048451	2.024226
O	6.072677	6.072677	0.000000
Pb	4.048451	4.048451	0.000000
W	6.072677	6.072677	2.024226
O	4.048451	6.072677	6.072677
O	6.072677	4.048451	6.072677
O	6.072677	6.072677	4.048451
Pb	4.048451	4.048451	4.048451
W	6.072677	6.072677	6.072677
