40

Ca	2.165911	2.165911	2.165911
Li	0.000000	0.000000	0.000000
O	2.165911	2.165911	0.000000
O	2.165911	0.000000	2.165911
O	0.000000	2.165911	2.165911
Ca	2.165911	2.165911	6.497736
Li	0.000000	0.000000	4.331825
O	2.165911	2.165911	4.331825
O	2.165911	0.000000	6.497736
O	0.000000	2.165911	6.497736
Ca	2.165911	6.497736	2.165911
Li	0.000000	4.331825	0.000000
O	2.165911	6.497736	0.000000
O	2.165911	4.331825	2.165911
O	0.000000	6.497736	2.165911
Ca	2.165911	6.497736	6.497736
Li	0.000000	4.331825	4.331825
O	2.165911	6.497736	4.331825
O	2.165911	4.331825	6.497736
O	0.000000	6.497736	6.497736
Ca	6.497736	2.165911	2.165911
Li	4.331825	0.000000	0.000000
O	6.497736	2.165911	0.000000
O	6.497736	0.000000	2.165911
O	4.331825	2.165911	2.165911
Ca	6.497736	2.165911	6.497736
Li	4.331825	0.000000	4.331825
O	6.497736	2.165911	4.331825
O	6.497736	0.000000	6.497736
O	4.331825	2.165911	6.497736
Ca	6.497736	6.497736	2.165911
Li	4.331825	4.331825	0.000000
O	6.497736	6.497736	0.000000
O	6.497736	4.331825	2.165911
O	4.331825	6.497736	2.165911
Ca	6.497736	6.497736	6.497736
Li	4.331825	4.331825	4.331825
O	6.497736	6.497736	4.331825
O	6.497736	4.331825	6.497736
O	4.331825	6.497736	6.497736
