40

O	0.000000	2.245432	2.245432
O	2.245432	0.000000	2.245432
O	2.245432	2.245432	0.000000
Tl	0.000000	0.000000	0.000000
Y	2.245432	2.245432	2.245432
O	0.000000	2.245432	6.736296
O	2.245432	0.000000	6.736296
O	2.245432	2.245432	4.490864
Tl	0.000000	0.000000	4.490864
Y	2.245432	2.245432	6.736296
O	0.000000	6.736296	2.245432
O	2.245432	4.490864	2.245432
O	2.245432	6.736296	0.000000
Tl	0.000000	4.490864	0.000000
Y	2.245432	6.736296	2.245432
O	0.000000	6.736296	6.736296
O	2.245432	4.490864	6.736296
O	2.245432	6.736296	4.490864
Tl	0.000000	4.490864	4.490864
Y	2.245432	6.736296	6.736296
O	4.490864	2.245432	2.245432
O	6.736296	0.000000	2.245432
O	6.736296	2.245432	0.000000
Tl	4.490864	0.000000	0.000000
Y	6.736296	2.245432	2.245432
O	4.490864	2.245432	6.736296
O	6.736296	0.000000	6.736296
O	6.736296	2.245432	4.490864
Tl	4.490864	0.000000	4.490864
Y	6.736296	2.245432	6.736296
O	4.490864	6.736296	2.245432
O	6.736296	4.490864	2.245432
O	6.736296	6.736296	0.000000
Tl	4.490864	4.490864	0.000000
Y	6.736296	6.736296	2.245432
O	4.490864	6.736296	6.736296
O	6.736296	4.490864	6.736296
O	6.736296	6.736296	4.490864
Tl	4.490864	4.490864	4.490864
Y	6.736296	6.736296	6.736296
