40

As	1.985090	1.985090	1.985090
O	1.985090	1.985090	0.000000
O	0.000000	1.985090	1.985090
O	1.985090	0.000000	1.985090
Pb_d	0.000000	0.000000	0.000000
As	1.985090	1.985090	5.955269
O	1.985090	1.985090	3.970179
O	0.000000	1.985090	5.955269
O	1.985090	0.000000	5.955269
Pb_d	0.000000	0.000000	3.970179
As	1.985090	5.955269	1.985090
O	1.985090	5.955269	0.000000
O	0.000000	5.955269	1.985090
O	1.985090	3.970179	1.985090
Pb_d	0.000000	3.970179	0.000000
As	1.985090	5.955269	5.955269
O	1.985090	5.955269	3.970179
O	0.000000	5.955269	5.955269
O	1.985090	3.970179	5.955269
Pb_d	0.000000	3.970179	3.970179
As	5.955269	1.985090	1.985090
O	5.955269	1.985090	0.000000
O	3.970179	1.985090	1.985090
O	5.955269	0.000000	1.985090
Pb_d	3.970179	0.000000	0.000000
As	5.955269	1.985090	5.955269
O	5.955269	1.985090	3.970179
O	3.970179	1.985090	5.955269
O	5.955269	0.000000	5.955269
Pb_d	3.970179	0.000000	3.970179
As	5.955269	5.955269	1.985090
O	5.955269	5.955269	0.000000
O	3.970179	5.955269	1.985090
O	5.955269	3.970179	1.985090
Pb_d	3.970179	3.970179	0.000000
As	5.955269	5.955269	5.955269
O	5.955269	5.955269	3.970179
O	3.970179	5.955269	5.955269
O	5.955269	3.970179	5.955269
Pb_d	3.970179	3.970179	3.970179
