40

O	2.051209	2.051209	0.000000
O	2.051209	0.000000	2.051209
O	0.000000	2.051209	2.051209
Y	0.000000	0.000000	0.000000
Yb	2.051209	2.051209	2.051209
O	2.051209	2.051209	4.102416
O	2.051209	0.000000	6.153625
O	0.000000	2.051209	6.153625
Y	0.000000	0.000000	4.102416
Yb	2.051209	2.051209	6.153625
O	2.051209	6.153625	0.000000
O	2.051209	4.102416	2.051209
O	0.000000	6.153625	2.051209
Y	0.000000	4.102416	0.000000
Yb	2.051209	6.153625	2.051209
O	2.051209	6.153625	4.102416
O	2.051209	4.102416	6.153625
O	0.000000	6.153625	6.153625
Y	0.000000	4.102416	4.102416
Yb	2.051209	6.153625	6.153625
O	6.153625	2.051209	0.000000
O	6.153625	0.000000	2.051209
O	4.102416	2.051209	2.051209
Y	4.102416	0.000000	0.000000
Yb	6.153625	2.051209	2.051209
O	6.153625	2.051209	4.102416
O	6.153625	0.000000	6.153625
O	4.102416	2.051209	6.153625
Y	4.102416	0.000000	4.102416
Yb	6.153625	2.051209	6.153625
O	6.153625	6.153625	0.000000
O	6.153625	4.102416	2.051209
O	4.102416	6.153625	2.051209
Y	4.102416	4.102416	0.000000
Yb	6.153625	6.153625	2.051209
O	6.153625	6.153625	4.102416
O	6.153625	4.102416	6.153625
O	4.102416	6.153625	6.153625
Y	4.102416	4.102416	4.102416
Yb	6.153625	6.153625	6.153625
