160

Ca	0.000000	0.000000	0.000000
Mn	0.000000	0.000000	-3.202362
Mn	2.617117	1.510993	-2.134908
Mn	2.617117	1.510993	1.067454
Mn	0.000000	3.021986	2.134907
Mn	0.000000	3.021986	-1.067454
Mn	-2.617117	1.510993	-2.134908
Mn	-2.617117	1.510993	1.067454
O	-0.932277	1.318181	-4.332717
O	-3.626516	3.170271	-2.197809
O	-1.619080	2.024359	-0.551606
O	0.675440	1.466466	-2.072007
O	-2.671547	3.411972	1.583302
O	0.943606	2.414344	0.551605
O	-0.943606	3.629628	-2.686514
O	2.671547	2.632001	-3.718210
O	-0.675440	4.577507	-0.062902
O	1.619080	4.019614	-1.583303
O	3.626516	2.873702	0.062901
O	0.932277	4.725791	2.197808
Ca	5.234233	3.021986	2.134907
Mn	5.234233	3.021986	-1.067454
Mn	7.851350	4.532980	-0.000001
Mn	7.851350	4.532980	3.202361
Mn	5.234233	6.043973	4.269815
Mn	5.234233	6.043973	1.067453
Mn	2.617117	4.532980	-0.000001
Mn	2.617117	4.532980	3.202361
O	4.301956	4.340168	-2.197809
O	1.607717	6.192257	-0.062902
O	3.615153	5.046345	1.583302
O	5.909673	4.488452	0.062901
O	2.562686	6.433958	3.718209
O	6.177839	5.436331	2.686513
O	4.290627	6.651615	-0.551606
O	7.905780	5.653987	-1.583303
O	4.558793	7.599493	2.072006
O	6.853314	7.041600	0.551605
O	8.860750	5.895688	2.197808
O	6.166510	7.747778	4.332716
Ca	-5.234233	3.021986	2.134907
Mn	-5.234233	3.021986	-1.067454
Mn	-2.617117	4.532980	-0.000001
Mn	-2.617117	4.532980	3.202361
Mn	-5.234233	6.043973	4.269815
Mn	-5.234233	6.043973	1.067453
Mn	-7.851350	4.532980	-0.000001
Mn	-7.851350	4.532980	3.202361
O	-6.166510	4.340168	-2.197809
O	-8.860749	6.192258	-0.062902
O	-6.853314	5.046345	1.583302
O	-4.558793	4.488453	0.062901
O	-7.905780	6.433958	3.718209
O	-4.290627	5.436331	2.686513
O	-6.177839	6.651615	-0.551606
O	-2.562686	5.653987	-1.583303
O	-5.909673	7.599493	2.072006
O	-3.615153	7.041600	0.551605
O	-1.607717	5.895688	2.197808
O	-4.301956	7.747778	4.332716
Ca	0.000000	6.043973	4.269815
Mn	0.000000	6.043973	1.067453
Mn	2.617117	7.554966	2.134907
Mn	2.617117	7.554966	5.337268
Mn	0.000000	9.065959	6.404722
Mn	0.000000	9.065959	3.202360
Mn	-2.617117	7.554966	2.134907
Mn	-2.617117	7.554966	5.337268
O	-0.932277	7.362154	-0.062902
O	-3.626516	9.214244	2.072006
O	-1.619080	8.068332	3.718209
O	0.675440	7.510439	2.197808
O	-2.671547	9.455945	5.853116
O	0.943606	8.458317	4.821420
O	-0.943606	9.673601	1.583301
O	2.671547	8.675974	0.551605
O	-0.675440	10.621479	4.206913
O	1.619080	10.063587	2.686512
O	3.626516	8.917674	4.332715
O	0.932277	10.769764	6.467623
Ca	0.000000	0.000000	-6.404723
Mn	0.000000	0.000000	-9.607085
Mn	2.617117	1.510993	-8.539631
Mn	2.617117	1.510993	-5.337269
Mn	0.000000	3.021986	-4.269816
Mn	0.000000	3.021986	-7.472177
Mn	-2.617117	1.510993	-8.539631
Mn	-2.617117	1.510993	-5.337269
O	-0.932277	1.318181	-10.737440
O	-3.626516	3.170271	-8.602532
O	-1.619080	2.024359	-6.956329
O	0.675440	1.466466	-8.476730
O	-2.671547	3.411972	-4.821421
O	0.943606	2.414344	-5.853118
O	-0.943606	3.629628	-9.091237
O	2.671547	2.632001	-10.122933
O	-0.675440	4.577507	-6.467625
O	1.619080	4.019614	-7.988026
O	3.626516	2.873702	-6.341822
O	0.932277	4.725791	-4.206915
Ca	5.234233	3.021986	-4.269816
Mn	5.234233	3.021986	-7.472177
Mn	7.851350	4.532980	-6.404724
Mn	7.851350	4.532980	-3.202362
Mn	5.234233	6.043973	-2.134908
Mn	5.234233	6.043973	-5.337270
Mn	2.617117	4.532980	-6.404724
Mn	2.617117	4.532980	-3.202362
O	4.301956	4.340168	-8.602532
O	1.607717	6.192257	-6.467625
O	3.615153	5.046345	-4.821421
O	5.909673	4.488452	-6.341822
O	2.562686	6.433958	-2.686514
O	6.177839	5.436331	-3.718210
O	4.290627	6.651615	-6.956329
O	7.905780	5.653987	-7.988026
O	4.558793	7.599493	-4.332717
O	6.853314	7.041600	-5.853118
O	8.860750	5.895688	-4.206915
O	6.166510	7.747778	-2.072007
Ca	-5.234233	3.021986	-4.269816
Mn	-5.234233	3.021986	-7.472177
Mn	-2.617117	4.532980	-6.404724
Mn	-2.617117	4.532980	-3.202362
Mn	-5.234233	6.043973	-2.134908
Mn	-5.234233	6.043973	-5.337270
Mn	-7.851350	4.532980	-6.404724
Mn	-7.851350	4.532980	-3.202362
O	-6.166510	4.340168	-8.602532
O	-8.860749	6.192258	-6.467625
O	-6.853314	5.046345	-4.821421
O	-4.558793	4.488453	-6.341822
O	-7.905780	6.433958	-2.686514
O	-4.290627	5.436331	-3.718210
O	-6.177839	6.651615	-6.956329
O	-2.562686	5.653987	-7.988026
O	-5.909673	7.599493	-4.332717
O	-3.615153	7.041600	-5.853118
O	-1.607717	5.895688	-4.206915
O	-4.301956	7.747778	-2.072007
Ca	0.000000	6.043973	-2.134908
Mn	0.000000	6.043973	-5.337270
Mn	2.617117	7.554966	-4.269816
Mn	2.617117	7.554966	-1.067455
Mn	0.000000	9.065959	-0.000001
Mn	0.000000	9.065959	-3.202363
Mn	-2.617117	7.554966	-4.269816
Mn	-2.617117	7.554966	-1.067455
O	-0.932277	7.362154	-6.467625
O	-3.626516	9.214244	-4.332717
O	-1.619080	8.068332	-2.686514
O	0.675440	7.510439	-4.206915
O	-2.671547	9.455945	-0.551607
O	0.943606	8.458317	-1.583303
O	-0.943606	9.673601	-4.821422
O	2.671547	8.675974	-5.853118
O	-0.675440	10.621479	-2.197810
O	1.619080	10.063587	-3.718211
O	3.626516	8.917674	-2.072008
O	0.932277	10.769764	0.062900
