40

Cs	0.000000	0.000000	0.000000
K	2.417494	2.417494	2.417494
O	2.417494	2.417494	0.000000
O	2.417494	0.000000	2.417494
O	0.000000	2.417494	2.417494
Cs	0.000000	0.000000	4.834983
K	2.417494	2.417494	7.252477
O	2.417494	2.417494	4.834983
O	2.417494	0.000000	7.252477
O	0.000000	2.417494	7.252477
Cs	0.000000	4.834983	0.000000
K	2.417494	7.252477	2.417494
O	2.417494	7.252477	0.000000
O	2.417494	4.834983	2.417494
O	0.000000	7.252477	2.417494
Cs	0.000000	4.834983	4.834983
K	2.417494	7.252477	7.252477
O	2.417494	7.252477	4.834983
O	2.417494	4.834983	7.252477
O	0.000000	7.252477	7.252477
Cs	4.834983	0.000000	0.000000
K	7.252477	2.417494	2.417494
O	7.252477	2.417494	0.000000
O	7.252477	0.000000	2.417494
O	4.834983	2.417494	2.417494
Cs	4.834983	0.000000	4.834983
K	7.252477	2.417494	7.252477
O	7.252477	2.417494	4.834983
O	7.252477	0.000000	7.252477
O	4.834983	2.417494	7.252477
Cs	4.834983	4.834983	0.000000
K	7.252477	7.252477	2.417494
O	7.252477	7.252477	0.000000
O	7.252477	4.834983	2.417494
O	4.834983	7.252477	2.417494
Cs	4.834983	4.834983	4.834983
K	7.252477	7.252477	7.252477
O	7.252477	7.252477	4.834983
O	7.252477	4.834983	7.252477
O	4.834983	7.252477	7.252477
