40

Ca	2.098205	2.098205	2.098205
O	2.098205	2.098205	0.000000
O	2.098205	0.000000	2.098205
O	0.000000	2.098205	2.098205
U	0.000000	0.000000	0.000000
Ca	2.098205	2.098205	6.294618
O	2.098205	2.098205	4.196412
O	2.098205	0.000000	6.294618
O	0.000000	2.098205	6.294618
U	0.000000	0.000000	4.196412
Ca	2.098205	6.294618	2.098205
O	2.098205	6.294618	0.000000
O	2.098205	4.196412	2.098205
O	0.000000	6.294618	2.098205
U	0.000000	4.196412	0.000000
Ca	2.098205	6.294618	6.294618
O	2.098205	6.294618	4.196412
O	2.098205	4.196412	6.294618
O	0.000000	6.294618	6.294618
U	0.000000	4.196412	4.196412
Ca	6.294618	2.098205	2.098205
O	6.294618	2.098205	0.000000
O	6.294618	0.000000	2.098205
O	4.196412	2.098205	2.098205
U	4.196412	0.000000	0.000000
Ca	6.294618	2.098205	6.294618
O	6.294618	2.098205	4.196412
O	6.294618	0.000000	6.294618
O	4.196412	2.098205	6.294618
U	4.196412	0.000000	4.196412
Ca	6.294618	6.294618	2.098205
O	6.294618	6.294618	0.000000
O	6.294618	4.196412	2.098205
O	4.196412	6.294618	2.098205
U	4.196412	4.196412	0.000000
Ca	6.294618	6.294618	6.294618
O	6.294618	6.294618	4.196412
O	6.294618	4.196412	6.294618
O	4.196412	6.294618	6.294618
U	4.196412	4.196412	4.196412
