40

Ca	0.000000	0.000000	0.000000
O	2.216908	2.216908	0.000000
O	2.216908	0.000000	2.216908
O	0.000000	2.216908	2.216908
U	2.216908	2.216908	2.216908
Ca	0.000000	0.000000	4.433817
O	2.216908	2.216908	4.433817
O	2.216908	0.000000	6.650725
O	0.000000	2.216908	6.650725
U	2.216908	2.216908	6.650725
Ca	0.000000	4.433817	0.000000
O	2.216908	6.650725	0.000000
O	2.216908	4.433817	2.216908
O	0.000000	6.650725	2.216908
U	2.216908	6.650725	2.216908
Ca	0.000000	4.433817	4.433817
O	2.216908	6.650725	4.433817
O	2.216908	4.433817	6.650725
O	0.000000	6.650725	6.650725
U	2.216908	6.650725	6.650725
Ca	4.433817	0.000000	0.000000
O	6.650725	2.216908	0.000000
O	6.650725	0.000000	2.216908
O	4.433817	2.216908	2.216908
U	6.650725	2.216908	2.216908
Ca	4.433817	0.000000	4.433817
O	6.650725	2.216908	4.433817
O	6.650725	0.000000	6.650725
O	4.433817	2.216908	6.650725
U	6.650725	2.216908	6.650725
Ca	4.433817	4.433817	0.000000
O	6.650725	6.650725	0.000000
O	6.650725	4.433817	2.216908
O	4.433817	6.650725	2.216908
U	6.650725	6.650725	2.216908
Ca	4.433817	4.433817	4.433817
O	6.650725	6.650725	4.433817
O	6.650725	4.433817	6.650725
O	4.433817	6.650725	6.650725
U	6.650725	6.650725	6.650725
