72

Pt	0.000000	0.000000	0.000000
Cl	-4.593980	-4.593980	-2.293513
Cl	-4.593980	-6.894447	-4.593980
Cl	-6.894447	-4.593980	-4.593980
Cl	-4.593980	-4.593980	-6.894447
Cl	-4.593980	-2.293513	-4.593980
Cl	-2.293513	-4.593980	-4.593980
O	-2.296990	-2.296990	-2.296990
O	-6.890970	-6.890970	-6.890970
Pt	0.000000	-4.593980	-4.593980
Cl	-4.593980	-9.187960	-6.887493
Cl	-4.593980	-11.488427	-9.187960
Cl	-6.894447	-9.187960	-9.187960
Cl	-4.593980	-9.187960	-11.488427
Cl	-4.593980	-6.887493	-9.187960
Cl	-2.293513	-9.187960	-9.187960
O	-2.296990	-6.890970	-6.890970
O	-6.890970	-11.484950	-11.484950
Pt	-4.593980	0.000000	-4.593980
Cl	-9.187960	-4.593980	-6.887493
Cl	-9.187960	-6.894447	-9.187960
Cl	-11.488427	-4.593980	-9.187960
Cl	-9.187960	-4.593980	-11.488427
Cl	-9.187960	-2.293513	-9.187960
Cl	-6.887493	-4.593980	-9.187960
O	-6.890970	-2.296990	-6.890970
O	-11.484950	-6.890970	-11.484950
Pt	-4.593980	-4.593980	-9.187960
Cl	-9.187960	-9.187960	-11.481473
Cl	-9.187960	-11.488427	-13.781940
Cl	-11.488427	-9.187960	-13.781940
Cl	-9.187960	-9.187960	-16.082407
Cl	-9.187960	-6.887493	-13.781940
Cl	-6.887493	-9.187960	-13.781940
O	-6.890970	-6.890970	-11.484950
O	-11.484950	-11.484950	-16.078930
Pt	-4.593980	-4.593980	0.000000
Cl	-9.187960	-9.187960	-2.293513
Cl	-9.187960	-11.488427	-4.593980
Cl	-11.488427	-9.187960	-4.593980
Cl	-9.187960	-9.187960	-6.894447
Cl	-9.187960	-6.887493	-4.593980
Cl	-6.887493	-9.187960	-4.593980
O	-6.890970	-6.890970	-2.296990
O	-11.484950	-11.484950	-6.890970
Pt	-4.593980	-9.187960	-4.593980
Cl	-9.187960	-13.781940	-6.887493
Cl	-9.187960	-16.082407	-9.187960
Cl	-11.488427	-13.781940	-9.187960
Cl	-9.187960	-13.781940	-11.488427
Cl	-9.187960	-11.481473	-9.187960
Cl	-6.887493	-13.781940	-9.187960
O	-6.890970	-11.484950	-6.890970
O	-11.484950	-16.078930	-11.484950
Pt	-9.187960	-4.593980	-4.593980
Cl	-13.781940	-9.187960	-6.887493
Cl	-13.781940	-11.488427	-9.187960
Cl	-16.082407	-9.187960	-9.187960
Cl	-13.781940	-9.187960	-11.488427
Cl	-13.781940	-6.887493	-9.187960
Cl	-11.481473	-9.187960	-9.187960
O	-11.484950	-6.890970	-6.890970
O	-16.078930	-11.484950	-11.484950
Pt	-9.187960	-9.187960	-9.187960
Cl	-13.781940	-13.781940	-11.481473
Cl	-13.781940	-16.082407	-13.781940
Cl	-16.082407	-13.781940	-13.781940
Cl	-13.781940	-13.781940	-16.082407
Cl	-13.781940	-11.481473	-13.781940
Cl	-11.481473	-13.781940	-13.781940
O	-11.484950	-11.484950	-11.484950
O	-16.078930	-16.078930	-16.078930
