64

Mg	0.000000	2.089525	2.089525
Mg	2.089525	0.000000	2.089525
Mg	2.089525	2.089525	0.000000
B	0.000000	0.000000	0.000000
O	2.089525	0.000000	0.000000
O	2.089525	2.089525	2.089525
O	0.000000	0.000000	2.089525
O	0.000000	2.089525	0.000000
Mg	0.000000	2.089525	6.268576
Mg	2.089525	0.000000	6.268576
Mg	2.089525	2.089525	4.179051
B	0.000000	0.000000	4.179051
O	2.089525	0.000000	4.179051
O	2.089525	2.089525	6.268576
O	0.000000	0.000000	6.268576
O	0.000000	2.089525	4.179051
Mg	0.000000	6.268576	2.089525
Mg	2.089525	4.179051	2.089525
Mg	2.089525	6.268576	0.000000
B	0.000000	4.179051	0.000000
O	2.089525	4.179051	0.000000
O	2.089525	6.268576	2.089525
O	0.000000	4.179051	2.089525
O	0.000000	6.268576	0.000000
Mg	0.000000	6.268576	6.268576
Mg	2.089525	4.179051	6.268576
Mg	2.089525	6.268576	4.179051
B	0.000000	4.179051	4.179051
O	2.089525	4.179051	4.179051
O	2.089525	6.268576	6.268576
O	0.000000	4.179051	6.268576
O	0.000000	6.268576	4.179051
Mg	4.179051	2.089525	2.089525
Mg	6.268576	0.000000	2.089525
Mg	6.268576	2.089525	0.000000
B	4.179051	0.000000	0.000000
O	6.268576	0.000000	0.000000
O	6.268576	2.089525	2.089525
O	4.179051	0.000000	2.089525
O	4.179051	2.089525	0.000000
Mg	4.179051	2.089525	6.268576
Mg	6.268576	0.000000	6.268576
Mg	6.268576	2.089525	4.179051
B	4.179051	0.000000	4.179051
O	6.268576	0.000000	4.179051
O	6.268576	2.089525	6.268576
O	4.179051	0.000000	6.268576
O	4.179051	2.089525	4.179051
Mg	4.179051	6.268576	2.089525
Mg	6.268576	4.179051	2.089525
Mg	6.268576	6.268576	0.000000
B	4.179051	4.179051	0.000000
O	6.268576	4.179051	0.000000
O	6.268576	6.268576	2.089525
O	4.179051	4.179051	2.089525
O	4.179051	6.268576	0.000000
Mg	4.179051	6.268576	6.268576
Mg	6.268576	4.179051	6.268576
Mg	6.268576	6.268576	4.179051
B	4.179051	4.179051	4.179051
O	6.268576	4.179051	4.179051
O	6.268576	6.268576	6.268576
O	4.179051	4.179051	6.268576
O	4.179051	6.268576	4.179051
