40

N	1.953300	1.953300	1.953300
O	0.000000	1.953300	1.953300
O	1.953300	0.000000	1.953300
O	1.953300	1.953300	0.000000
Rb	0.000000	0.000000	0.000000
N	1.953300	1.953300	5.859900
O	0.000000	1.953300	5.859900
O	1.953300	0.000000	5.859900
O	1.953300	1.953300	3.906600
Rb	0.000000	0.000000	3.906600
N	1.953300	5.859900	1.953300
O	0.000000	5.859900	1.953300
O	1.953300	3.906600	1.953300
O	1.953300	5.859900	0.000000
Rb	0.000000	3.906600	0.000000
N	1.953300	5.859900	5.859900
O	0.000000	5.859900	5.859900
O	1.953300	3.906600	5.859900
O	1.953300	5.859900	3.906600
Rb	0.000000	3.906600	3.906600
N	5.859900	1.953300	1.953300
O	3.906600	1.953300	1.953300
O	5.859900	0.000000	1.953300
O	5.859900	1.953300	0.000000
Rb	3.906600	0.000000	0.000000
N	5.859900	1.953300	5.859900
O	3.906600	1.953300	5.859900
O	5.859900	0.000000	5.859900
O	5.859900	1.953300	3.906600
Rb	3.906600	0.000000	3.906600
N	5.859900	5.859900	1.953300
O	3.906600	5.859900	1.953300
O	5.859900	3.906600	1.953300
O	5.859900	5.859900	0.000000
Rb	3.906600	3.906600	0.000000
N	5.859900	5.859900	5.859900
O	3.906600	5.859900	5.859900
O	5.859900	3.906600	5.859900
O	5.859900	5.859900	3.906600
Rb	3.906600	3.906600	3.906600
