40

Hf	2.028410	2.028410	2.028410
O	2.028410	2.028410	0.000000
O	0.000000	2.028410	2.028410
O	2.028410	0.000000	2.028410
Pt	0.000000	0.000000	0.000000
Hf	2.028410	2.028410	6.085229
O	2.028410	2.028410	4.056819
O	0.000000	2.028410	6.085229
O	2.028410	0.000000	6.085229
Pt	0.000000	0.000000	4.056819
Hf	2.028410	6.085229	2.028410
O	2.028410	6.085229	0.000000
O	0.000000	6.085229	2.028410
O	2.028410	4.056819	2.028410
Pt	0.000000	4.056819	0.000000
Hf	2.028410	6.085229	6.085229
O	2.028410	6.085229	4.056819
O	0.000000	6.085229	6.085229
O	2.028410	4.056819	6.085229
Pt	0.000000	4.056819	4.056819
Hf	6.085229	2.028410	2.028410
O	6.085229	2.028410	0.000000
O	4.056819	2.028410	2.028410
O	6.085229	0.000000	2.028410
Pt	4.056819	0.000000	0.000000
Hf	6.085229	2.028410	6.085229
O	6.085229	2.028410	4.056819
O	4.056819	2.028410	6.085229
O	6.085229	0.000000	6.085229
Pt	4.056819	0.000000	4.056819
Hf	6.085229	6.085229	2.028410
O	6.085229	6.085229	0.000000
O	4.056819	6.085229	2.028410
O	6.085229	4.056819	2.028410
Pt	4.056819	4.056819	0.000000
Hf	6.085229	6.085229	6.085229
O	6.085229	6.085229	4.056819
O	4.056819	6.085229	6.085229
O	6.085229	4.056819	6.085229
Pt	4.056819	4.056819	4.056819
