40

Eu	1.950944	1.950944	1.950944
V	0.000000	0.000000	0.000000
O	1.950944	0.000000	0.000000
O	0.000000	1.950944	0.000000
O	0.000000	0.000000	1.950944
Eu	1.950944	1.950944	5.852831
V	0.000000	0.000000	3.901888
O	1.950944	0.000000	3.901888
O	0.000000	1.950944	3.901888
O	0.000000	0.000000	5.852831
Eu	1.950944	5.852831	1.950944
V	0.000000	3.901888	0.000000
O	1.950944	3.901888	0.000000
O	0.000000	5.852831	0.000000
O	0.000000	3.901888	1.950944
Eu	1.950944	5.852831	5.852831
V	0.000000	3.901888	3.901888
O	1.950944	3.901888	3.901888
O	0.000000	5.852831	3.901888
O	0.000000	3.901888	5.852831
Eu	5.852831	1.950944	1.950944
V	3.901888	0.000000	0.000000
O	5.852831	0.000000	0.000000
O	3.901888	1.950944	0.000000
O	3.901888	0.000000	1.950944
Eu	5.852831	1.950944	5.852831
V	3.901888	0.000000	3.901888
O	5.852831	0.000000	3.901888
O	3.901888	1.950944	3.901888
O	3.901888	0.000000	5.852831
Eu	5.852831	5.852831	1.950944
V	3.901888	3.901888	0.000000
O	5.852831	3.901888	0.000000
O	3.901888	5.852831	0.000000
O	3.901888	3.901888	1.950944
Eu	5.852831	5.852831	5.852831
V	3.901888	3.901888	3.901888
O	5.852831	3.901888	3.901888
O	3.901888	5.852831	3.901888
O	3.901888	3.901888	5.852831
