40

O	2.207740	2.207740	0.000000
O	0.000000	2.207740	2.207740
O	2.207740	0.000000	2.207740
Sm_3	2.207740	2.207740	2.207740
Sr_sv	0.000000	0.000000	0.000000
O	2.207740	2.207740	4.415485
O	0.000000	2.207740	6.623225
O	2.207740	0.000000	6.623225
Sm_3	2.207740	2.207740	6.623225
Sr_sv	0.000000	0.000000	4.415485
O	2.207740	6.623225	0.000000
O	0.000000	6.623225	2.207740
O	2.207740	4.415485	2.207740
Sm_3	2.207740	6.623225	2.207740
Sr_sv	0.000000	4.415485	0.000000
O	2.207740	6.623225	4.415485
O	0.000000	6.623225	6.623225
O	2.207740	4.415485	6.623225
Sm_3	2.207740	6.623225	6.623225
Sr_sv	0.000000	4.415485	4.415485
O	6.623225	2.207740	0.000000
O	4.415485	2.207740	2.207740
O	6.623225	0.000000	2.207740
Sm_3	6.623225	2.207740	2.207740
Sr_sv	4.415485	0.000000	0.000000
O	6.623225	2.207740	4.415485
O	4.415485	2.207740	6.623225
O	6.623225	0.000000	6.623225
Sm_3	6.623225	2.207740	6.623225
Sr_sv	4.415485	0.000000	4.415485
O	6.623225	6.623225	0.000000
O	4.415485	6.623225	2.207740
O	6.623225	4.415485	2.207740
Sm_3	6.623225	6.623225	2.207740
Sr_sv	4.415485	4.415485	0.000000
O	6.623225	6.623225	4.415485
O	4.415485	6.623225	6.623225
O	6.623225	4.415485	6.623225
Sm_3	6.623225	6.623225	6.623225
Sr_sv	4.415485	4.415485	4.415485
