112

Ti	-0.867177	4.943653	1.497206
Ti	0.873444	2.472863	1.505101
Ti	-1.740972	2.472222	-0.007102
Ti	-1.743746	2.480099	3.007427
Zn	0.865476	0.625239	4.526259
Zn	0.882653	4.319869	-1.516211
O	-2.488880	3.671493	1.496097
O	-0.060238	3.666138	2.903080
O	-0.059853	3.661566	0.098325
O	2.616739	3.574336	1.507097
O	1.808381	1.283586	2.911366
O	1.808579	1.279012	0.107480
O	-0.868257	1.370181	1.503101
O	4.236545	1.273732	1.514047
Ti	-0.872619	4.959504	7.529152
Ti	0.868002	2.488714	7.537047
Ti	-1.746415	2.488073	6.024844
Ti	-1.749188	2.495950	9.039373
Zn	0.860034	0.641090	10.558205
Zn	0.877210	4.335720	4.515735
O	-2.494322	3.687344	7.528043
O	-0.065681	3.681989	8.935026
O	-0.065295	3.677416	6.130271
O	2.611296	3.590186	7.539044
O	1.802939	1.299436	8.943312
O	1.803137	1.294862	6.139426
O	-0.873699	1.386032	7.535047
O	4.231103	1.289583	7.545993
Ti	-4.349802	9.887580	1.481514
Ti	-2.609180	7.416790	1.489409
Ti	-5.223597	7.416149	-0.022794
Ti	-5.226370	7.424026	2.991735
Zn	-2.617148	5.569166	4.510567
Zn	-2.599972	9.263796	-1.531903
O	-5.971504	8.615420	1.480405
O	-3.542863	8.610065	2.887388
O	-3.542477	8.605493	0.082633
O	-0.865886	8.518262	1.491405
O	-1.674243	6.227513	2.895674
O	-1.674045	6.222939	0.091788
O	-4.350881	6.314108	1.487409
O	0.753920	6.217659	1.498355
Ti	-4.355244	9.903431	7.513460
Ti	-2.614622	7.432641	7.521355
Ti	-5.229039	7.432000	6.009152
Ti	-5.231813	7.439877	9.023681
Zn	-2.622591	5.585017	10.542513
Zn	-2.605414	9.279647	4.500043
O	-5.976947	8.631271	7.512351
O	-3.548305	8.625916	8.919334
O	-3.547920	8.621343	6.114579
O	-0.871328	8.534113	7.523352
O	-1.679685	6.243363	8.927620
O	-1.679487	6.238789	6.123734
O	-4.356324	6.329959	7.519355
O	0.748478	6.233510	7.530301
Ti	4.369113	4.928906	-1.508910
Ti	6.109735	2.458116	-1.501015
Ti	3.495318	2.457475	-3.013218
Ti	3.492544	2.465352	0.001311
Zn	6.101766	0.610492	1.520143
Zn	6.118943	4.305122	-4.522327
O	2.747411	3.656746	-1.510019
O	5.176052	3.651391	-0.103036
O	5.176438	3.646819	-2.907791
O	7.853029	3.559588	-1.499019
O	7.044672	1.268839	-0.094750
O	7.044870	1.264264	-2.898636
O	4.368033	1.355434	-1.503015
O	9.472835	1.258985	-1.492069
Ti	4.363671	4.944757	4.523036
Ti	6.104292	2.473967	4.530931
Ti	3.489876	2.473326	3.018728
Ti	3.487102	2.481203	6.033257
Zn	6.096324	0.626343	7.552089
Zn	6.113501	4.320973	1.509619
O	2.741968	3.672597	4.521927
O	5.170610	3.667242	5.928910
O	5.170995	3.662669	3.124155
O	7.847586	3.575439	4.532928
O	7.039229	1.284689	5.937196
O	7.039427	1.280115	3.133310
O	4.362591	1.371285	4.528931
O	9.467393	1.274836	4.539877
Ti	0.886489	9.872833	-1.524602
Ti	2.627110	7.402043	-1.516707
Ti	0.012693	7.401402	-3.028910
Ti	0.009920	7.409279	-0.014381
Zn	2.619142	5.554419	1.504451
Zn	2.636318	9.249049	-4.538019
O	-0.735214	8.600673	-1.525711
O	1.693427	8.595318	-0.118728
O	1.693813	8.590746	-2.923483
O	4.370404	8.503515	-1.514711
O	3.562047	6.212766	-0.110442
O	3.562245	6.208191	-2.914328
O	0.885409	6.299361	-1.518707
O	5.990211	6.202912	-1.507761
Ti	0.881046	9.888684	4.507344
Ti	2.621668	7.417894	4.515239
Ti	0.007251	7.417253	3.003036
Ti	0.004478	7.425130	6.017565
Zn	2.613699	5.570270	7.536397
Zn	2.630876	9.264899	1.493927
O	-0.740656	8.616523	4.506235
O	1.687985	8.611168	5.913218
O	1.688371	8.606596	3.108463
O	4.364962	8.519366	4.517236
O	3.556605	6.228616	5.921504
O	3.556803	6.224042	3.117618
O	0.879967	6.315212	4.513239
O	5.984768	6.218763	4.524185
