112

O	3.737055	-1.112800	-1.112800
O	-1.113261	1.112800	-3.738428
O	1.113261	-1.112800	-3.738428
O	1.311897	1.312814	-1.312814
O	5.963576	1.112800	-1.112800
O	1.311897	3.538414	-3.538414
O	3.538418	3.538414	-1.312814
O	3.538418	1.312814	-3.538414
Pr	0.000000	0.000000	0.000000
Pr	2.425158	-2.425614	-2.425614
Yb	-1.212579	-1.212807	-3.638421
Yb	3.637737	1.212807	-1.212807
Yb	6.062895	-1.212807	-1.212807
Yb	1.212579	1.212807	-3.638421
O	8.587371	3.738428	-1.112800
O	3.737055	5.964028	-3.738428
O	5.963576	3.738428	-3.738428
O	6.162213	6.164042	-1.312814
O	10.813892	5.964028	-1.112800
O	6.162213	8.389642	-3.538414
O	8.388734	8.389642	-1.312814
O	8.388734	6.164042	-3.538414
Pr	4.850316	4.851228	0.000000
Pr	7.275474	2.425614	-2.425614
Yb	3.637737	3.638421	-3.638421
Yb	8.488053	6.064035	-1.212807
Yb	10.913211	3.638421	-1.212807
Yb	6.062895	6.064035	-3.638421
O	-1.113261	-1.112800	-5.964028
O	-5.963576	1.112800	-8.589656
O	-3.737055	-1.112800	-8.589656
O	-3.538418	1.312814	-6.164042
O	1.113261	1.112800	-5.964028
O	-3.538418	3.538414	-8.389642
O	-1.311897	3.538414	-6.164042
O	-1.311897	1.312814	-8.389642
Pr	-4.850316	0.000000	-4.851228
Pr	-2.425158	-2.425614	-7.276842
Yb	-6.062895	-1.212807	-8.489649
Yb	-1.212579	1.212807	-6.064035
Yb	1.212579	-1.212807	-6.064035
Yb	-3.637737	1.212807	-8.489649
O	3.737055	3.738428	-5.964028
O	-1.113261	5.964028	-8.589656
O	1.113261	3.738428	-8.589656
O	1.311897	6.164042	-6.164042
O	5.963576	5.964028	-5.964028
O	1.311897	8.389642	-8.389642
O	3.538418	8.389642	-6.164042
O	3.538418	6.164042	-8.389642
Pr	0.000000	4.851228	-4.851228
Pr	2.425158	2.425614	-7.276842
Yb	-1.212579	3.638421	-8.489649
Yb	3.637737	6.064035	-6.064035
Yb	6.062895	3.638421	-6.064035
Yb	1.212579	6.064035	-8.489649
O	8.587371	-5.964028	-1.112800
O	3.737055	-3.738428	-3.738428
O	5.963576	-5.964028	-3.738428
O	6.162213	-3.538414	-1.312814
O	10.813892	-3.738428	-1.112800
O	6.162213	-1.312814	-3.538414
O	8.388734	-1.312814	-1.312814
O	8.388734	-3.538414	-3.538414
Pr	4.850316	-4.851228	0.000000
Pr	7.275474	-7.276842	-2.425614
Yb	3.637737	-6.064035	-3.638421
Yb	8.488053	-3.638421	-1.212807
Yb	10.913211	-6.064035	-1.212807
Yb	6.062895	-3.638421	-3.638421
O	13.437687	-1.112800	-1.112800
O	8.587371	1.112800	-3.738428
O	10.813892	-1.112800	-3.738428
O	11.012529	1.312814	-1.312814
O	15.664208	1.112800	-1.112800
O	11.012529	3.538414	-3.538414
O	13.239050	3.538414	-1.312814
O	13.239050	1.312814	-3.538414
Pr	9.700632	0.000000	0.000000
Pr	12.125790	-2.425614	-2.425614
Yb	8.488053	-1.212807	-3.638421
Yb	13.338369	1.212807	-1.212807
Yb	15.763527	-1.212807	-1.212807
Yb	10.913211	1.212807	-3.638421
O	3.737055	-5.964028	-5.964028
O	-1.113261	-3.738428	-8.589656
O	1.113261	-5.964028	-8.589656
O	1.311897	-3.538414	-6.164042
O	5.963576	-3.738428	-5.964028
O	1.311897	-1.312814	-8.389642
O	3.538418	-1.312814	-6.164042
O	3.538418	-3.538414	-8.389642
Pr	0.000000	-4.851228	-4.851228
Pr	2.425158	-7.276842	-7.276842
Yb	-1.212579	-6.064035	-8.489649
Yb	3.637737	-3.638421	-6.064035
Yb	6.062895	-6.064035	-6.064035
Yb	1.212579	-3.638421	-8.489649
O	8.587371	-1.112800	-5.964028
O	3.737055	1.112800	-8.589656
O	5.963576	-1.112800	-8.589656
O	6.162213	1.312814	-6.164042
O	10.813892	1.112800	-5.964028
O	6.162213	3.538414	-8.389642
O	8.388734	3.538414	-6.164042
O	8.388734	1.312814	-8.389642
Pr	4.850316	0.000000	-4.851228
Pr	7.275474	-2.425614	-7.276842
Yb	3.637737	-1.212807	-8.489649
Yb	8.488053	1.212807	-6.064035
Yb	10.913211	-1.212807	-6.064035
Yb	6.062895	1.212807	-8.489649
