112

Cs	0.000000	0.000000	0.000000
Cs	2.503283	-2.503803	-2.503803
O	4.048762	-0.957501	-0.957501
O	-0.957804	0.957501	-4.050104
O	0.957804	-0.957501	-4.050104
O	1.545479	1.546301	-1.546302
O	5.964370	0.957501	-0.957501
O	1.545479	3.461304	-3.461304
O	3.461087	3.461304	-1.546302
O	3.461087	1.546301	-3.461304
Sn	-1.251641	-1.251901	-3.755704
Sn	3.754924	1.251901	-1.251901
Sn	6.258207	-1.251901	-1.251901
Sn	1.251641	1.251901	-3.755704
Cs	5.006566	5.007606	0.000000
Cs	7.509849	2.503803	-2.503803
O	9.055328	4.050104	-0.957501
O	4.048762	5.965107	-4.050104
O	5.964370	4.050104	-4.050104
O	6.552045	6.553907	-1.546302
O	10.970936	5.965107	-0.957501
O	6.552045	8.468910	-3.461304
O	8.467653	8.468910	-1.546302
O	8.467653	6.553907	-3.461304
Sn	3.754924	3.755704	-3.755704
Sn	8.761490	6.259507	-1.251901
Sn	11.264773	3.755704	-1.251901
Sn	6.258207	6.259507	-3.755704
Cs	-5.006566	0.000000	-5.007606
Cs	-2.503283	-2.503803	-7.511409
O	-0.957804	-0.957501	-5.965107
O	-5.964370	0.957501	-9.057710
O	-4.048762	-0.957501	-9.057710
O	-3.461087	1.546301	-6.553907
O	0.957804	0.957501	-5.965107
O	-3.461087	3.461304	-8.468910
O	-1.545479	3.461304	-6.553907
O	-1.545479	1.546301	-8.468910
Sn	-6.258207	-1.251901	-8.763310
Sn	-1.251641	1.251901	-6.259507
Sn	1.251641	-1.251901	-6.259507
Sn	-3.754924	1.251901	-8.763310
Cs	0.000000	5.007606	-5.007606
Cs	2.503283	2.503803	-7.511409
O	4.048762	4.050104	-5.965107
O	-0.957804	5.965107	-9.057710
O	0.957804	4.050104	-9.057710
O	1.545479	6.553907	-6.553907
O	5.964370	5.965107	-5.965107
O	1.545479	8.468910	-8.468910
O	3.461087	8.468910	-6.553907
O	3.461087	6.553907	-8.468910
Sn	-1.251641	3.755704	-8.763310
Sn	3.754924	6.259507	-6.259507
Sn	6.258207	3.755704	-6.259507
Sn	1.251641	6.259507	-8.763310
Cs	5.006566	-5.007606	0.000000
Cs	7.509849	-7.511409	-2.503803
O	9.055328	-5.965107	-0.957501
O	4.048762	-4.050104	-4.050104
O	5.964370	-5.965107	-4.050104
O	6.552045	-3.461304	-1.546302
O	10.970936	-4.050104	-0.957501
O	6.552045	-1.546302	-3.461304
O	8.467653	-1.546302	-1.546302
O	8.467653	-3.461304	-3.461304
Sn	3.754924	-6.259507	-3.755704
Sn	8.761490	-3.755704	-1.251901
Sn	11.264773	-6.259507	-1.251901
Sn	6.258207	-3.755704	-3.755704
Cs	10.013132	0.000000	0.000000
Cs	12.516415	-2.503803	-2.503803
O	14.061894	-0.957501	-0.957501
O	9.055328	0.957501	-4.050104
O	10.970936	-0.957501	-4.050104
O	11.558611	1.546301	-1.546302
O	15.977502	0.957501	-0.957501
O	11.558611	3.461304	-3.461304
O	13.474219	3.461304	-1.546302
O	13.474219	1.546301	-3.461304
Sn	8.761490	-1.251901	-3.755704
Sn	13.768056	1.251901	-1.251901
Sn	16.271339	-1.251901	-1.251901
Sn	11.264773	1.251901	-3.755704
Cs	0.000000	-5.007606	-5.007606
Cs	2.503283	-7.511409	-7.511409
O	4.048762	-5.965107	-5.965107
O	-0.957804	-4.050104	-9.057710
O	0.957804	-5.965107	-9.057710
O	1.545479	-3.461304	-6.553907
O	5.964370	-4.050104	-5.965107
O	1.545479	-1.546302	-8.468910
O	3.461087	-1.546302	-6.553907
O	3.461087	-3.461304	-8.468910
Sn	-1.251641	-6.259507	-8.763310
Sn	3.754924	-3.755704	-6.259507
Sn	6.258207	-6.259507	-6.259507
Sn	1.251641	-3.755704	-8.763310
Cs	5.006566	0.000000	-5.007606
Cs	7.509849	-2.503803	-7.511409
O	9.055328	-0.957501	-5.965107
O	4.048762	0.957501	-9.057710
O	5.964370	-0.957501	-9.057710
O	6.552045	1.546301	-6.553907
O	10.970936	0.957501	-5.965107
O	6.552045	3.461304	-8.468910
O	8.467653	3.461304	-6.553907
O	8.467653	1.546301	-8.468910
Sn	3.754924	-1.251901	-8.763310
Sn	8.761490	1.251901	-6.259507
Sn	11.264773	-1.251901	-6.259507
Sn	6.258207	1.251901	-8.763310
