112

Cs	0.000000	0.000000	0.000000
Cs	2.479994	-2.480600	-2.480600
O	4.006720	-0.953111	-0.953111
O	-0.953269	0.953111	-4.008089
O	0.953269	-0.953111	-4.008089
O	1.526725	1.527489	-1.527489
O	5.913267	0.953111	-0.953111
O	1.526725	3.433710	-3.433710
O	3.433273	3.433710	-1.527489
O	3.433273	1.527489	-3.433710
Sn	-1.239997	-1.240300	-3.720899
Sn	3.719991	1.240300	-1.240300
Sn	1.239997	1.240300	-3.720899
Sn	6.199996	-1.240300	-1.240300
Cs	4.959994	4.961205	0.000000
Cs	7.439989	2.480605	-2.480600
O	8.966714	4.008094	-0.953111
O	4.006726	5.914316	-4.008089
O	5.913263	4.008094	-4.008089
O	6.486720	6.488694	-1.527489
O	10.873262	5.914316	-0.953111
O	6.486720	8.394915	-3.433710
O	8.393268	8.394915	-1.527489
O	8.393268	6.488694	-3.433710
Sn	3.719997	3.720905	-3.720899
Sn	8.679986	6.201505	-1.240300
Sn	6.199992	6.201505	-3.720899
Sn	11.159990	3.720905	-1.240300
Cs	-4.959994	0.000000	-4.961205
Cs	-2.480000	-2.480600	-7.441805
O	-0.953275	-0.953111	-5.914316
O	-5.913263	0.953111	-8.969294
O	-4.006726	-0.953111	-8.969294
O	-3.433269	1.527489	-6.488694
O	0.953273	0.953111	-5.914316
O	-3.433269	3.433710	-8.394915
O	-1.526721	3.433710	-6.488694
O	-1.526721	1.527489	-8.394915
Sn	-6.199992	-1.240300	-8.682105
Sn	-1.240003	1.240300	-6.201505
Sn	-3.719997	1.240300	-8.682105
Sn	1.240001	-1.240300	-6.201505
Cs	0.000000	4.961205	-4.961205
Cs	2.479994	2.480605	-7.441805
O	4.006720	4.008094	-5.914316
O	-0.953269	5.914316	-8.969294
O	0.953269	4.008094	-8.969294
O	1.526725	6.488694	-6.488694
O	5.913267	5.914316	-5.914316
O	1.526725	8.394915	-8.394915
O	3.433273	8.394915	-6.488694
O	3.433273	6.488694	-8.394915
Sn	-1.239997	3.720905	-8.682105
Sn	3.719991	6.201505	-6.201505
Sn	1.239997	6.201505	-8.682105
Sn	6.199996	3.720905	-6.201505
Cs	4.959994	-4.961205	0.000000
Cs	7.439989	-7.441805	-2.480600
O	8.966714	-5.914316	-0.953111
O	4.006726	-4.008094	-4.008089
O	5.913263	-5.914316	-4.008089
O	6.486720	-3.433716	-1.527489
O	10.873262	-4.008094	-0.953111
O	6.486720	-1.527495	-3.433710
O	8.393268	-1.527495	-1.527489
O	8.393268	-3.433716	-3.433710
Sn	3.719997	-6.201505	-3.720899
Sn	8.679986	-3.720905	-1.240300
Sn	6.199992	-3.720905	-3.720899
Sn	11.159990	-6.201505	-1.240300
Cs	9.919989	0.000000	0.000000
Cs	12.399983	-2.480600	-2.480600
O	13.926709	-0.953111	-0.953111
O	8.966720	0.953111	-4.008089
O	10.873258	-0.953111	-4.008089
O	11.446714	1.527489	-1.527489
O	15.833256	0.953111	-0.953111
O	11.446714	3.433710	-3.433710
O	13.353262	3.433710	-1.527489
O	13.353262	1.527489	-3.433710
Sn	8.679992	-1.240300	-3.720899
Sn	13.639980	1.240300	-1.240300
Sn	11.159986	1.240300	-3.720899
Sn	16.119985	-1.240300	-1.240300
Cs	0.000000	-4.961205	-4.961205
Cs	2.479994	-7.441805	-7.441805
O	4.006720	-5.914316	-5.914316
O	-0.953269	-4.008094	-8.969294
O	0.953269	-5.914316	-8.969294
O	1.526725	-3.433716	-6.488694
O	5.913267	-4.008094	-5.914316
O	1.526725	-1.527495	-8.394915
O	3.433273	-1.527495	-6.488694
O	3.433273	-3.433716	-8.394915
Sn	-1.239997	-6.201505	-8.682105
Sn	3.719991	-3.720905	-6.201505
Sn	1.239997	-3.720905	-8.682105
Sn	6.199996	-6.201505	-6.201505
Cs	4.959994	0.000000	-4.961205
Cs	7.439989	-2.480600	-7.441805
O	8.966714	-0.953111	-5.914316
O	4.006726	0.953111	-8.969294
O	5.913263	-0.953111	-8.969294
O	6.486720	1.527489	-6.488694
O	10.873262	0.953111	-5.914316
O	6.486720	3.433710	-8.394915
O	8.393268	3.433710	-6.488694
O	8.393268	1.527489	-8.394915
Sn	3.719997	-1.240300	-8.682105
Sn	8.679986	1.240300	-6.201505
Sn	6.199992	1.240300	-8.682105
Sn	11.159990	-1.240300	-6.201505
