40

O	2.123939	2.123939	0.000000
O	2.123939	0.000000	2.123939
O	0.000000	2.123939	2.123939
Pb	2.123939	2.123939	2.123939
W	0.000000	0.000000	0.000000
O	2.123939	2.123939	4.247877
O	2.123939	0.000000	6.371816
O	0.000000	2.123939	6.371816
Pb	2.123939	2.123939	6.371816
W	0.000000	0.000000	4.247877
O	2.123939	6.371816	0.000000
O	2.123939	4.247877	2.123939
O	0.000000	6.371816	2.123939
Pb	2.123939	6.371816	2.123939
W	0.000000	4.247877	0.000000
O	2.123939	6.371816	4.247877
O	2.123939	4.247877	6.371816
O	0.000000	6.371816	6.371816
Pb	2.123939	6.371816	6.371816
W	0.000000	4.247877	4.247877
O	6.371816	2.123939	0.000000
O	6.371816	0.000000	2.123939
O	4.247877	2.123939	2.123939
Pb	6.371816	2.123939	2.123939
W	4.247877	0.000000	0.000000
O	6.371816	2.123939	4.247877
O	6.371816	0.000000	6.371816
O	4.247877	2.123939	6.371816
Pb	6.371816	2.123939	6.371816
W	4.247877	0.000000	4.247877
O	6.371816	6.371816	0.000000
O	6.371816	4.247877	2.123939
O	4.247877	6.371816	2.123939
Pb	6.371816	6.371816	2.123939
W	4.247877	4.247877	0.000000
O	6.371816	6.371816	4.247877
O	6.371816	4.247877	6.371816
O	4.247877	6.371816	6.371816
Pb	6.371816	6.371816	6.371816
W	4.247877	4.247877	4.247877
