112

Co	0.000000	0.000000	0.000000
Co	2.036622	-2.045330	-2.045329
Li	-1.018311	-1.022665	-3.067994
Li	3.054932	1.022665	-1.022665
Li	5.091554	-1.022665	-1.022665
Li	1.018311	1.022665	-3.067994
O	2.999653	-1.080666	-1.080666
O	-1.073590	1.080666	-3.009993
O	1.073590	-1.080666	-3.009993
O	0.963031	0.964664	-0.964664
O	5.146834	1.080666	-1.080666
O	0.963031	3.125995	-3.125995
O	3.110212	3.125995	-0.964664
O	3.110212	0.964664	-3.125995
Co	4.073243	4.090659	0.000000
Co	6.109865	2.045329	-2.045329
Li	3.054932	3.067994	-3.067994
Li	7.128176	5.113324	-1.022665
Li	9.164797	3.067994	-1.022665
Li	5.091554	5.113324	-3.067994
O	7.072896	3.009993	-1.080666
O	2.999653	5.171325	-3.009993
O	5.146833	3.009993	-3.009993
O	5.036275	5.055323	-0.964664
O	9.220077	5.171325	-1.080666
O	5.036275	7.216654	-3.125995
O	7.183455	7.216654	-0.964664
O	7.183455	5.055323	-3.125995
Co	-4.073243	0.000000	-4.090659
Co	-2.036622	-2.045330	-6.135988
Li	-5.091554	-1.022665	-7.158653
Li	-1.018311	1.022665	-5.113324
Li	1.018311	-1.022665	-5.113324
Li	-3.054932	1.022665	-7.158653
O	-1.073590	-1.080666	-5.171325
O	-5.146834	1.080666	-7.100652
O	-2.999653	-1.080666	-7.100652
O	-3.110212	0.964664	-5.055323
O	1.073590	1.080666	-5.171325
O	-3.110212	3.125995	-7.216654
O	-0.963031	3.125995	-5.055323
O	-0.963031	0.964664	-7.216654
Co	0.000000	4.090659	-4.090659
Co	2.036622	2.045329	-6.135988
Li	-1.018311	3.067994	-7.158653
Li	3.054932	5.113324	-5.113324
Li	5.091554	3.067994	-5.113324
Li	1.018311	5.113324	-7.158653
O	2.999653	3.009993	-5.171325
O	-1.073590	5.171325	-7.100652
O	1.073590	3.009993	-7.100652
O	0.963031	5.055323	-5.055323
O	5.146834	5.171325	-5.171325
O	0.963031	7.216654	-7.216654
O	3.110212	7.216654	-5.055323
O	3.110212	5.055323	-7.216654
Co	4.073243	-4.090659	0.000000
Co	6.109865	-6.135988	-2.045329
Li	3.054932	-5.113324	-3.067994
Li	7.128176	-3.067994	-1.022665
Li	9.164797	-5.113324	-1.022665
Li	5.091554	-3.067994	-3.067994
O	7.072896	-5.171325	-1.080666
O	2.999653	-3.009993	-3.009993
O	5.146833	-5.171325	-3.009993
O	5.036275	-3.125995	-0.964664
O	9.220077	-3.009993	-1.080666
O	5.036275	-0.964664	-3.125995
O	7.183455	-0.964664	-0.964664
O	7.183455	-3.125995	-3.125995
Co	8.146487	0.000000	0.000000
Co	10.183108	-2.045330	-2.045329
Li	7.128176	-1.022665	-3.067994
Li	11.201419	1.022665	-1.022665
Li	13.238041	-1.022665	-1.022665
Li	9.164797	1.022665	-3.067994
O	11.146140	-1.080666	-1.080666
O	7.072896	1.080666	-3.009993
O	9.220077	-1.080666	-3.009993
O	9.109518	0.964664	-0.964664
O	13.293320	1.080666	-1.080666
O	9.109518	3.125995	-3.125995
O	11.256698	3.125995	-0.964664
O	11.256698	0.964664	-3.125995
Co	0.000000	-4.090659	-4.090659
Co	2.036622	-6.135988	-6.135988
Li	-1.018311	-5.113324	-7.158653
Li	3.054932	-3.067994	-5.113324
Li	5.091554	-5.113324	-5.113324
Li	1.018311	-3.067994	-7.158653
O	2.999653	-5.171325	-5.171325
O	-1.073590	-3.009993	-7.100652
O	1.073590	-5.171325	-7.100652
O	0.963031	-3.125995	-5.055323
O	5.146834	-3.009993	-5.171325
O	0.963031	-0.964664	-7.216654
O	3.110212	-0.964664	-5.055323
O	3.110212	-3.125995	-7.216654
Co	4.073243	0.000000	-4.090659
Co	6.109865	-2.045330	-6.135988
Li	3.054932	-1.022665	-7.158653
Li	7.128176	1.022665	-5.113324
Li	9.164797	-1.022665	-5.113324
Li	5.091554	1.022665	-7.158653
O	7.072896	-1.080666	-5.171325
O	2.999653	1.080666	-7.100652
O	5.146833	-1.080666	-7.100652
O	5.036275	0.964664	-5.055323
O	9.220077	1.080666	-5.171325
O	5.036275	3.125995	-7.216654
O	7.183455	3.125995	-5.055323
O	7.183455	0.964664	-7.216654
