112

K	0.000000	0.000000	0.000000
K	2.493858	-2.497038	-2.497038
Na	-1.246924	-1.248519	-3.745557
Na	1.246924	1.248519	-3.745557
Na	3.740783	1.248519	-1.248519
Na	6.234641	-1.248519	-1.248519
O	4.041884	-0.943590	-0.943590
O	-0.945824	0.943590	-4.050486
O	0.945824	-0.943590	-4.050486
O	1.548025	1.553448	-1.553448
O	5.933540	0.943590	-0.943590
O	1.548025	3.440628	-3.440628
O	3.439682	3.440628	-1.553448
O	3.439682	1.553448	-3.440628
K	4.987714	4.994077	0.000000
K	7.481572	2.497039	-2.497038
Na	3.740790	3.745558	-3.745557
Na	6.234638	6.242596	-3.745557
Na	8.728497	6.242596	-1.248519
Na	11.222355	3.745558	-1.248519
O	9.029598	4.050487	-0.943590
O	4.041890	5.937667	-4.050486
O	5.933538	4.050487	-4.050486
O	6.535739	6.547525	-1.553448
O	10.921254	5.937667	-0.943590
O	6.535739	8.434706	-3.440628
O	8.427396	8.434706	-1.553448
O	8.427396	6.547525	-3.440628
K	-4.987714	0.000000	-4.994077
K	-2.493856	-2.497038	-7.491116
Na	-6.234638	-1.248519	-8.739635
Na	-3.740790	1.248519	-8.739635
Na	-1.246931	1.248519	-6.242596
Na	1.246927	-1.248519	-6.242596
O	-0.945830	-0.943590	-5.937667
O	-5.933538	0.943590	-9.044564
O	-4.041890	-0.943590	-9.044564
O	-3.439689	1.553448	-6.547525
O	0.945826	0.943590	-5.937667
O	-3.439689	3.440628	-8.434706
O	-1.548032	3.440628	-6.547525
O	-1.548032	1.553448	-8.434706
K	0.000000	4.994077	-4.994077
K	2.493858	2.497039	-7.491116
Na	-1.246924	3.745558	-8.739635
Na	1.246924	6.242596	-8.739635
Na	3.740783	6.242596	-6.242596
Na	6.234641	3.745558	-6.242596
O	4.041884	4.050487	-5.937667
O	-0.945824	5.937667	-9.044564
O	0.945824	4.050487	-9.044564
O	1.548025	6.547525	-6.547525
O	5.933540	5.937667	-5.937667
O	1.548025	8.434706	-8.434706
O	3.439682	8.434706	-6.547525
O	3.439682	6.547525	-8.434706
K	4.987714	-4.994077	0.000000
K	7.481572	-7.491116	-2.497038
Na	3.740790	-6.242596	-3.745557
Na	6.234638	-3.745558	-3.745557
Na	8.728497	-3.745558	-1.248519
Na	11.222355	-6.242596	-1.248519
O	9.029598	-5.937667	-0.943590
O	4.041890	-4.050487	-4.050486
O	5.933538	-5.937667	-4.050486
O	6.535739	-3.440629	-1.553448
O	10.921254	-4.050487	-0.943590
O	6.535739	-1.553449	-3.440628
O	8.427396	-1.553449	-1.553448
O	8.427396	-3.440629	-3.440628
K	9.975428	0.000000	0.000000
K	12.469286	-2.497038	-2.497038
Na	8.728504	-1.248519	-3.745557
Na	11.222352	1.248519	-3.745557
Na	13.716211	1.248519	-1.248519
Na	16.210069	-1.248519	-1.248519
O	14.017311	-0.943590	-0.943590
O	9.029604	0.943590	-4.050486
O	10.921252	-0.943590	-4.050486
O	11.523453	1.553448	-1.553448
O	15.908968	0.943590	-0.943590
O	11.523453	3.440628	-3.440628
O	13.415110	3.440628	-1.553448
O	13.415110	1.553448	-3.440628
K	0.000000	-4.994077	-4.994077
K	2.493858	-7.491116	-7.491116
Na	-1.246924	-6.242596	-8.739635
Na	1.246924	-3.745558	-8.739635
Na	3.740783	-3.745558	-6.242596
Na	6.234641	-6.242596	-6.242596
O	4.041884	-5.937667	-5.937667
O	-0.945824	-4.050487	-9.044564
O	0.945824	-5.937667	-9.044564
O	1.548025	-3.440629	-6.547525
O	5.933540	-4.050487	-5.937667
O	1.548025	-1.553449	-8.434706
O	3.439682	-1.553449	-6.547525
O	3.439682	-3.440629	-8.434706
K	4.987714	0.000000	-4.994077
K	7.481572	-2.497038	-7.491116
Na	3.740790	-1.248519	-8.739635
Na	6.234638	1.248519	-8.739635
Na	8.728497	1.248519	-6.242596
Na	11.222355	-1.248519	-6.242596
O	9.029598	-0.943590	-5.937667
O	4.041890	0.943590	-9.044564
O	5.933538	-0.943590	-9.044564
O	6.535739	1.553448	-6.547525
O	10.921254	0.943590	-5.937667
O	6.535739	3.440628	-8.434706
O	8.427396	3.440628	-6.547525
O	8.427396	1.553448	-8.434706
