40

Co	0.000000	0.000000	0.000000
O	2.042500	0.000000	2.042500
O	0.000000	2.042500	2.042500
O	2.042500	2.042500	0.000000
Te	2.042500	2.042500	2.042500
Co	0.000000	0.000000	4.085009
O	2.042500	0.000000	6.127509
O	0.000000	2.042500	6.127509
O	2.042500	2.042500	4.085009
Te	2.042500	2.042500	6.127509
Co	0.000000	4.085009	0.000000
O	2.042500	4.085009	2.042500
O	0.000000	6.127509	2.042500
O	2.042500	6.127509	0.000000
Te	2.042500	6.127509	2.042500
Co	0.000000	4.085009	4.085009
O	2.042500	4.085009	6.127509
O	0.000000	6.127509	6.127509
O	2.042500	6.127509	4.085009
Te	2.042500	6.127509	6.127509
Co	4.085009	0.000000	0.000000
O	6.127509	0.000000	2.042500
O	4.085009	2.042500	2.042500
O	6.127509	2.042500	0.000000
Te	6.127509	2.042500	2.042500
Co	4.085009	0.000000	4.085009
O	6.127509	0.000000	6.127509
O	4.085009	2.042500	6.127509
O	6.127509	2.042500	4.085009
Te	6.127509	2.042500	6.127509
Co	4.085009	4.085009	0.000000
O	6.127509	4.085009	2.042500
O	4.085009	6.127509	2.042500
O	6.127509	6.127509	0.000000
Te	6.127509	6.127509	2.042500
Co	4.085009	4.085009	4.085009
O	6.127509	4.085009	6.127509
O	4.085009	6.127509	6.127509
O	6.127509	6.127509	4.085009
Te	6.127509	6.127509	6.127509
