112

Cd	0.000000	0.000000	0.000000
Cd	2.397847	-2.398547	-2.398547
O	3.712874	-1.082623	-1.082623
O	-1.082819	1.082623	-3.714471
O	1.082819	-1.082623	-3.714471
O	1.315028	1.315924	-1.315924
O	5.878512	1.082623	-1.082623
O	1.315028	3.481170	-3.481170
O	3.480666	3.481170	-1.315924
O	3.480666	1.315924	-3.481170
Y	-1.198923	-1.199273	-3.597820
Y	3.596770	1.199273	-1.199273
Y	5.994617	-1.199273	-1.199273
Y	1.198923	1.199273	-3.597820
Cd	4.795693	4.797094	0.000000
Cd	7.193540	2.398547	-2.398547
O	8.508568	3.714471	-1.082623
O	3.712874	5.879717	-3.714471
O	5.878512	3.714471	-3.714471
O	6.110721	6.113018	-1.315924
O	10.674206	5.879717	-1.082623
O	6.110721	8.278263	-3.481170
O	8.276359	8.278263	-1.315924
O	8.276359	6.113018	-3.481170
Y	3.596770	3.597820	-3.597820
Y	8.392463	5.996367	-1.199273
Y	10.790310	3.597820	-1.199273
Y	5.994617	5.996367	-3.597820
Cd	-4.795693	0.000000	-4.797094
Cd	-2.397847	-2.398547	-7.195641
O	-1.082819	-1.082623	-5.879717
O	-5.878512	1.082623	-8.511565
O	-3.712874	-1.082623	-8.511565
O	-3.480666	1.315924	-6.113018
O	1.082819	1.082623	-5.879717
O	-3.480666	3.481170	-8.278263
O	-1.315028	3.481170	-6.113018
O	-1.315028	1.315924	-8.278263
Y	-5.994617	-1.199273	-8.394914
Y	-1.198923	1.199273	-5.996367
Y	1.198923	-1.199273	-5.996367
Y	-3.596770	1.199273	-8.394914
Cd	0.000000	4.797094	-4.797094
Cd	2.397847	2.398547	-7.195641
O	3.712874	3.714471	-5.879717
O	-1.082819	5.879717	-8.511565
O	1.082819	3.714471	-8.511565
O	1.315028	6.113018	-6.113018
O	5.878512	5.879717	-5.879717
O	1.315028	8.278263	-8.278263
O	3.480666	8.278263	-6.113018
O	3.480666	6.113018	-8.278263
Y	-1.198923	3.597820	-8.394914
Y	3.596770	5.996367	-5.996367
Y	5.994617	3.597820	-5.996367
Y	1.198923	5.996367	-8.394914
Cd	4.795693	-4.797094	0.000000
Cd	7.193540	-7.195641	-2.398547
O	8.508568	-5.879717	-1.082623
O	3.712874	-3.714471	-3.714471
O	5.878512	-5.879717	-3.714471
O	6.110721	-3.481170	-1.315924
O	10.674206	-3.714471	-1.082623
O	6.110721	-1.315924	-3.481170
O	8.276359	-1.315924	-1.315924
O	8.276359	-3.481170	-3.481170
Y	3.596770	-5.996367	-3.597820
Y	8.392463	-3.597820	-1.199273
Y	10.790310	-5.996367	-1.199273
Y	5.994617	-3.597820	-3.597820
Cd	9.591387	0.000000	0.000000
Cd	11.989233	-2.398547	-2.398547
O	13.304261	-1.082623	-1.082623
O	8.508568	1.082623	-3.714471
O	10.674206	-1.082623	-3.714471
O	10.906414	1.315924	-1.315924
O	15.469899	1.082623	-1.082623
O	10.906414	3.481170	-3.481170
O	13.072052	3.481170	-1.315924
O	13.072052	1.315924	-3.481170
Y	8.392463	-1.199273	-3.597820
Y	13.188157	1.199273	-1.199273
Y	15.586003	-1.199273	-1.199273
Y	10.790310	1.199273	-3.597820
Cd	0.000000	-4.797094	-4.797094
Cd	2.397847	-7.195641	-7.195641
O	3.712874	-5.879717	-5.879717
O	-1.082819	-3.714471	-8.511565
O	1.082819	-5.879717	-8.511565
O	1.315028	-3.481170	-6.113018
O	5.878512	-3.714471	-5.879717
O	1.315028	-1.315924	-8.278263
O	3.480666	-1.315924	-6.113018
O	3.480666	-3.481170	-8.278263
Y	-1.198923	-5.996367	-8.394914
Y	3.596770	-3.597820	-5.996367
Y	5.994617	-5.996367	-5.996367
Y	1.198923	-3.597820	-8.394914
Cd	4.795693	0.000000	-4.797094
Cd	7.193540	-2.398547	-7.195641
O	8.508568	-1.082623	-5.879717
O	3.712874	1.082623	-8.511565
O	5.878512	-1.082623	-8.511565
O	6.110721	1.315924	-6.113018
O	10.674206	1.082623	-5.879717
O	6.110721	3.481170	-8.278263
O	8.276359	3.481170	-6.113018
O	8.276359	1.315924	-8.278263
Y	3.596770	-1.199273	-8.394914
Y	8.392463	1.199273	-5.996367
Y	10.790310	-1.199273	-5.996367
Y	5.994617	1.199273	-8.394914
