40

N	0.000000	0.000000	0.000000
O	0.000000	1.859179	1.859179
O	1.859179	0.000000	1.859179
O	1.859179	1.859179	0.000000
Zn	1.859179	1.859179	1.859179
N	0.000000	0.000000	3.718358
O	0.000000	1.859179	5.577537
O	1.859179	0.000000	5.577537
O	1.859179	1.859179	3.718358
Zn	1.859179	1.859179	5.577537
N	0.000000	3.718358	0.000000
O	0.000000	5.577537	1.859179
O	1.859179	3.718358	1.859179
O	1.859179	5.577537	0.000000
Zn	1.859179	5.577537	1.859179
N	0.000000	3.718358	3.718358
O	0.000000	5.577537	5.577537
O	1.859179	3.718358	5.577537
O	1.859179	5.577537	3.718358
Zn	1.859179	5.577537	5.577537
N	3.718358	0.000000	0.000000
O	3.718358	1.859179	1.859179
O	5.577537	0.000000	1.859179
O	5.577537	1.859179	0.000000
Zn	5.577537	1.859179	1.859179
N	3.718358	0.000000	3.718358
O	3.718358	1.859179	5.577537
O	5.577537	0.000000	5.577537
O	5.577537	1.859179	3.718358
Zn	5.577537	1.859179	5.577537
N	3.718358	3.718358	0.000000
O	3.718358	5.577537	1.859179
O	5.577537	3.718358	1.859179
O	5.577537	5.577537	0.000000
Zn	5.577537	5.577537	1.859179
N	3.718358	3.718358	3.718358
O	3.718358	5.577537	5.577537
O	5.577537	3.718358	5.577537
O	5.577537	5.577537	3.718358
Zn	5.577537	5.577537	5.577537
