40

Br	0.000000	0.000000	0.000000
O	0.000000	2.183284	2.183284
O	2.183284	0.000000	2.183284
O	2.183284	2.183284	0.000000
Pb	2.183284	2.183284	2.183284
Br	0.000000	0.000000	4.366568
O	0.000000	2.183284	6.549851
O	2.183284	0.000000	6.549851
O	2.183284	2.183284	4.366568
Pb	2.183284	2.183284	6.549851
Br	0.000000	4.366568	0.000000
O	0.000000	6.549851	2.183284
O	2.183284	4.366568	2.183284
O	2.183284	6.549851	0.000000
Pb	2.183284	6.549851	2.183284
Br	0.000000	4.366568	4.366568
O	0.000000	6.549851	6.549851
O	2.183284	4.366568	6.549851
O	2.183284	6.549851	4.366568
Pb	2.183284	6.549851	6.549851
Br	4.366568	0.000000	0.000000
O	4.366568	2.183284	2.183284
O	6.549851	0.000000	2.183284
O	6.549851	2.183284	0.000000
Pb	6.549851	2.183284	2.183284
Br	4.366568	0.000000	4.366568
O	4.366568	2.183284	6.549851
O	6.549851	0.000000	6.549851
O	6.549851	2.183284	4.366568
Pb	6.549851	2.183284	6.549851
Br	4.366568	4.366568	0.000000
O	4.366568	6.549851	2.183284
O	6.549851	4.366568	2.183284
O	6.549851	6.549851	0.000000
Pb	6.549851	6.549851	2.183284
Br	4.366568	4.366568	4.366568
O	4.366568	6.549851	6.549851
O	6.549851	4.366568	6.549851
O	6.549851	6.549851	4.366568
Pb	6.549851	6.549851	6.549851
