112

Nd	0.000000	0.000000	0.000000
Nd	2.254964	-2.255523	-2.255523
O	3.531148	-0.978387	-0.978387
O	-0.978780	0.978387	-3.532659
O	0.978780	-0.978387	-3.532659
O	1.276184	1.277136	-1.277136
O	5.488708	0.978387	-0.978387
O	1.276184	3.233910	-3.233910
O	3.233744	3.233910	-1.277136
O	3.233744	1.277136	-3.233910
Ti	-1.127482	-1.127761	-3.383284
Ti	3.382446	1.127761	-1.127761
Ti	5.637410	-1.127761	-1.127761
Ti	1.127482	1.127761	-3.383284
Nd	4.509928	4.511046	0.000000
Nd	6.764892	2.255523	-2.255523
O	8.041076	3.532659	-0.978387
O	3.531148	5.489432	-3.532659
O	5.488708	3.532659	-3.532659
O	5.786112	5.788182	-1.277136
O	9.998636	5.489432	-0.978387
O	5.786112	7.744955	-3.233910
O	7.743672	7.744955	-1.277136
O	7.743672	5.788182	-3.233910
Ti	3.382446	3.383284	-3.383284
Ti	7.892374	5.638807	-1.127761
Ti	10.147338	3.383284	-1.127761
Ti	5.637410	5.638807	-3.383284
Nd	-4.509928	0.000000	-4.511046
Nd	-2.254964	-2.255523	-6.766568
O	-0.978780	-0.978387	-5.489432
O	-5.488708	0.978387	-8.043704
O	-3.531148	-0.978387	-8.043704
O	-3.233744	1.277136	-5.788182
O	0.978780	0.978387	-5.489432
O	-3.233744	3.233910	-7.744955
O	-1.276184	3.233910	-5.788182
O	-1.276184	1.277136	-7.744955
Ti	-5.637410	-1.127761	-7.894330
Ti	-1.127482	1.127761	-5.638807
Ti	1.127482	-1.127761	-5.638807
Ti	-3.382446	1.127761	-7.894330
Nd	0.000000	4.511046	-4.511046
Nd	2.254964	2.255523	-6.766568
O	3.531148	3.532659	-5.489432
O	-0.978780	5.489432	-8.043704
O	0.978780	3.532659	-8.043704
O	1.276184	5.788182	-5.788182
O	5.488708	5.489432	-5.489432
O	1.276184	7.744955	-7.744955
O	3.233744	7.744955	-5.788182
O	3.233744	5.788182	-7.744955
Ti	-1.127482	3.383284	-7.894330
Ti	3.382446	5.638807	-5.638807
Ti	5.637410	3.383284	-5.638807
Ti	1.127482	5.638807	-7.894330
Nd	4.509928	-4.511046	0.000000
Nd	6.764892	-6.766568	-2.255523
O	8.041076	-5.489432	-0.978387
O	3.531148	-3.532659	-3.532659
O	5.488708	-5.489432	-3.532659
O	5.786112	-3.233910	-1.277136
O	9.998636	-3.532659	-0.978387
O	5.786112	-1.277136	-3.233910
O	7.743672	-1.277136	-1.277136
O	7.743672	-3.233910	-3.233910
Ti	3.382446	-5.638807	-3.383284
Ti	7.892374	-3.383284	-1.127761
Ti	10.147338	-5.638807	-1.127761
Ti	5.637410	-3.383284	-3.383284
Nd	9.019856	0.000000	0.000000
Nd	11.274820	-2.255523	-2.255523
O	12.551003	-0.978387	-0.978387
O	8.041076	0.978387	-3.532659
O	9.998636	-0.978387	-3.532659
O	10.296040	1.277136	-1.277136
O	14.508564	0.978387	-0.978387
O	10.296040	3.233910	-3.233910
O	12.253600	3.233910	-1.277136
O	12.253600	1.277136	-3.233910
Ti	7.892374	-1.127761	-3.383284
Ti	12.402302	1.127761	-1.127761
Ti	14.657266	-1.127761	-1.127761
Ti	10.147338	1.127761	-3.383284
Nd	0.000000	-4.511046	-4.511046
Nd	2.254964	-6.766568	-6.766568
O	3.531148	-5.489432	-5.489432
O	-0.978780	-3.532659	-8.043704
O	0.978780	-5.489432	-8.043704
O	1.276184	-3.233910	-5.788182
O	5.488708	-3.532659	-5.489432
O	1.276184	-1.277136	-7.744955
O	3.233744	-1.277136	-5.788182
O	3.233744	-3.233910	-7.744955
Ti	-1.127482	-5.638807	-7.894330
Ti	3.382446	-3.383284	-5.638807
Ti	5.637410	-5.638807	-5.638807
Ti	1.127482	-3.383284	-7.894330
Nd	4.509928	0.000000	-4.511046
Nd	6.764892	-2.255523	-6.766568
O	8.041076	-0.978387	-5.489432
O	3.531148	0.978387	-8.043704
O	5.488708	-0.978387	-8.043704
O	5.786112	1.277136	-5.788182
O	9.998636	0.978387	-5.489432
O	5.786112	3.233910	-7.744955
O	7.743672	3.233910	-5.788182
O	7.743672	1.277136	-7.744955
Ti	3.382446	-1.127761	-7.894330
Ti	7.892374	1.127761	-5.638807
Ti	10.147338	-1.127761	-5.638807
Ti	5.637410	1.127761	-7.894330
