40

O	2.036445	2.036445	0.000000
O	0.000000	2.036445	2.036445
O	2.036445	0.000000	2.036445
Pb	0.000000	0.000000	0.000000
Ta	2.036445	2.036445	2.036445
O	2.036445	2.036445	4.072890
O	0.000000	2.036445	6.109335
O	2.036445	0.000000	6.109335
Pb	0.000000	0.000000	4.072890
Ta	2.036445	2.036445	6.109335
O	2.036445	6.109335	0.000000
O	0.000000	6.109335	2.036445
O	2.036445	4.072890	2.036445
Pb	0.000000	4.072890	0.000000
Ta	2.036445	6.109335	2.036445
O	2.036445	6.109335	4.072890
O	0.000000	6.109335	6.109335
O	2.036445	4.072890	6.109335
Pb	0.000000	4.072890	4.072890
Ta	2.036445	6.109335	6.109335
O	6.109335	2.036445	0.000000
O	4.072890	2.036445	2.036445
O	6.109335	0.000000	2.036445
Pb	4.072890	0.000000	0.000000
Ta	6.109335	2.036445	2.036445
O	6.109335	2.036445	4.072890
O	4.072890	2.036445	6.109335
O	6.109335	0.000000	6.109335
Pb	4.072890	0.000000	4.072890
Ta	6.109335	2.036445	6.109335
O	6.109335	6.109335	0.000000
O	4.072890	6.109335	2.036445
O	6.109335	4.072890	2.036445
Pb	4.072890	4.072890	0.000000
Ta	6.109335	6.109335	2.036445
O	6.109335	6.109335	4.072890
O	4.072890	6.109335	6.109335
O	6.109335	4.072890	6.109335
Pb	4.072890	4.072890	4.072890
Ta	6.109335	6.109335	6.109335
