40

F	0.000000	0.000000	0.000000
O	0.000000	1.878823	1.878823
O	1.878823	0.000000	1.878823
O	1.878823	1.878823	0.000000
Os	1.878823	1.878823	1.878823
F	0.000000	0.000000	3.757646
O	0.000000	1.878823	5.636469
O	1.878823	0.000000	5.636469
O	1.878823	1.878823	3.757646
Os	1.878823	1.878823	5.636469
F	0.000000	3.757646	0.000000
O	0.000000	5.636469	1.878823
O	1.878823	3.757646	1.878823
O	1.878823	5.636469	0.000000
Os	1.878823	5.636469	1.878823
F	0.000000	3.757646	3.757646
O	0.000000	5.636469	5.636469
O	1.878823	3.757646	5.636469
O	1.878823	5.636469	3.757646
Os	1.878823	5.636469	5.636469
F	3.757646	0.000000	0.000000
O	3.757646	1.878823	1.878823
O	5.636469	0.000000	1.878823
O	5.636469	1.878823	0.000000
Os	5.636469	1.878823	1.878823
F	3.757646	0.000000	3.757646
O	3.757646	1.878823	5.636469
O	5.636469	0.000000	5.636469
O	5.636469	1.878823	3.757646
Os	5.636469	1.878823	5.636469
F	3.757646	3.757646	0.000000
O	3.757646	5.636469	1.878823
O	5.636469	3.757646	1.878823
O	5.636469	5.636469	0.000000
Os	5.636469	5.636469	1.878823
F	3.757646	3.757646	3.757646
O	3.757646	5.636469	5.636469
O	5.636469	3.757646	5.636469
O	5.636469	5.636469	3.757646
Os	5.636469	5.636469	5.636469
