40

Cu	0.000000	0.000000	0.000000
Nb	1.982959	1.982959	1.982959
O	0.000000	1.982959	1.982959
O	1.982959	0.000000	1.982959
O	1.982959	1.982959	0.000000
Cu	0.000000	0.000000	3.965918
Nb	1.982959	1.982959	5.948878
O	0.000000	1.982959	5.948878
O	1.982959	0.000000	5.948878
O	1.982959	1.982959	3.965918
Cu	0.000000	3.965918	0.000000
Nb	1.982959	5.948878	1.982959
O	0.000000	5.948878	1.982959
O	1.982959	3.965918	1.982959
O	1.982959	5.948878	0.000000
Cu	0.000000	3.965918	3.965918
Nb	1.982959	5.948878	5.948878
O	0.000000	5.948878	5.948878
O	1.982959	3.965918	5.948878
O	1.982959	5.948878	3.965918
Cu	3.965918	0.000000	0.000000
Nb	5.948878	1.982959	1.982959
O	3.965918	1.982959	1.982959
O	5.948878	0.000000	1.982959
O	5.948878	1.982959	0.000000
Cu	3.965918	0.000000	3.965918
Nb	5.948878	1.982959	5.948878
O	3.965918	1.982959	5.948878
O	5.948878	0.000000	5.948878
O	5.948878	1.982959	3.965918
Cu	3.965918	3.965918	0.000000
Nb	5.948878	5.948878	1.982959
O	3.965918	5.948878	1.982959
O	5.948878	3.965918	1.982959
O	5.948878	5.948878	0.000000
Cu	3.965918	3.965918	3.965918
Nb	5.948878	5.948878	5.948878
O	3.965918	5.948878	5.948878
O	5.948878	3.965918	5.948878
O	5.948878	5.948878	3.965918
