40

O	1.951104	1.951104	0.000000
O	1.951104	0.000000	1.951104
O	0.000000	1.951104	1.951104
Ru	1.951104	1.951104	1.951104
Yb	0.000000	0.000000	0.000000
O	1.951104	1.951104	3.902208
O	1.951104	0.000000	5.853312
O	0.000000	1.951104	5.853312
Ru	1.951104	1.951104	5.853312
Yb	0.000000	0.000000	3.902208
O	1.951104	5.853312	0.000000
O	1.951104	3.902208	1.951104
O	0.000000	5.853312	1.951104
Ru	1.951104	5.853312	1.951104
Yb	0.000000	3.902208	0.000000
O	1.951104	5.853312	3.902208
O	1.951104	3.902208	5.853312
O	0.000000	5.853312	5.853312
Ru	1.951104	5.853312	5.853312
Yb	0.000000	3.902208	3.902208
O	5.853312	1.951104	0.000000
O	5.853312	0.000000	1.951104
O	3.902208	1.951104	1.951104
Ru	5.853312	1.951104	1.951104
Yb	3.902208	0.000000	0.000000
O	5.853312	1.951104	3.902208
O	5.853312	0.000000	5.853312
O	3.902208	1.951104	5.853312
Ru	5.853312	1.951104	5.853312
Yb	3.902208	0.000000	3.902208
O	5.853312	5.853312	0.000000
O	5.853312	3.902208	1.951104
O	3.902208	5.853312	1.951104
Ru	5.853312	5.853312	1.951104
Yb	3.902208	3.902208	0.000000
O	5.853312	5.853312	3.902208
O	5.853312	3.902208	5.853312
O	3.902208	5.853312	5.853312
Ru	5.853312	5.853312	5.853312
Yb	3.902208	3.902208	3.902208
