40

O	1.936920	1.936920	0.000000
O	0.000000	1.936920	1.936920
O	1.936920	0.000000	1.936920
Ru	1.936920	1.936920	1.936920
Yb_2	0.000000	0.000000	0.000000
O	1.936920	1.936920	3.873850
O	0.000000	1.936920	5.810770
O	1.936920	0.000000	5.810770
Ru	1.936920	1.936920	5.810770
Yb_2	0.000000	0.000000	3.873850
O	1.936920	5.810770	0.000000
O	0.000000	5.810770	1.936920
O	1.936920	3.873850	1.936920
Ru	1.936920	5.810770	1.936920
Yb_2	0.000000	3.873850	0.000000
O	1.936920	5.810770	3.873850
O	0.000000	5.810770	5.810770
O	1.936920	3.873850	5.810770
Ru	1.936920	5.810770	5.810770
Yb_2	0.000000	3.873850	3.873850
O	5.810770	1.936920	0.000000
O	3.873850	1.936920	1.936920
O	5.810770	0.000000	1.936920
Ru	5.810770	1.936920	1.936920
Yb_2	3.873850	0.000000	0.000000
O	5.810770	1.936920	3.873850
O	3.873850	1.936920	5.810770
O	5.810770	0.000000	5.810770
Ru	5.810770	1.936920	5.810770
Yb_2	3.873850	0.000000	3.873850
O	5.810770	5.810770	0.000000
O	3.873850	5.810770	1.936920
O	5.810770	3.873850	1.936920
Ru	5.810770	5.810770	1.936920
Yb_2	3.873850	3.873850	0.000000
O	5.810770	5.810770	3.873850
O	3.873850	5.810770	5.810770
O	5.810770	3.873850	5.810770
Ru	5.810770	5.810770	5.810770
Yb_2	3.873850	3.873850	3.873850
