288

N	2.857660	2.857660	2.857660
N	2.857660	1.289974	7.005295
N	1.289974	7.005295	2.857660
N	7.005295	2.857660	1.289974
N	5.437609	5.437609	5.437609
N	1.289974	5.437609	7.005295
N	7.005295	1.289974	5.437609
N	5.437609	7.005295	1.289974
O	6.462645	2.364734	0.254346
O	1.782900	8.040923	2.315010
O	1.832624	6.512369	3.893288
O	2.315010	1.782900	8.040923
O	2.315010	2.364734	3.893288
O	3.893288	2.315010	2.364734
O	2.364734	3.893288	2.315010
O	1.782900	4.401981	6.462645
O	8.040923	1.832624	5.930535
O	5.930535	8.040923	1.832624
O	0.254346	5.980259	6.512369
O	4.401981	6.462645	1.782900
O	6.512369	0.254346	5.980259
O	6.462645	1.782900	4.401981
O	5.980259	6.512369	0.254346
O	1.832624	5.930535	8.040923
O	5.980259	5.930535	4.401981
O	4.401981	5.980259	5.930535
O	5.930535	4.401981	5.980259
O	6.512369	3.893288	1.832624
O	0.254346	6.462645	2.364734
O	2.364734	0.254346	6.462645
O	8.040923	2.315010	1.782900
O	3.893288	1.832624	6.512369
Ba	0.000000	4.147635	4.147635
Ba	4.147635	4.147635	0.000000
Ba	4.147635	0.000000	4.147635
Ba	0.000000	0.000000	0.000000
N	2.857660	2.857660	11.152929
N	2.857660	1.289974	15.300564
N	1.289974	7.005295	11.152929
N	7.005295	2.857660	9.585243
N	5.437609	5.437609	13.732878
N	1.289974	5.437609	15.300564
N	7.005295	1.289974	13.732878
N	5.437609	7.005295	9.585243
O	6.462645	2.364734	8.549615
O	1.782900	8.040923	10.610279
O	1.832624	6.512369	12.188558
O	2.315010	1.782900	16.336192
O	2.315010	2.364734	12.188558
O	3.893288	2.315010	10.660003
O	2.364734	3.893288	10.610279
O	1.782900	4.401981	14.757914
O	8.040923	1.832624	14.225804
O	5.930535	8.040923	10.127893
O	0.254346	5.980259	14.807638
O	4.401981	6.462645	10.078169
O	6.512369	0.254346	14.275528
O	6.462645	1.782900	12.697250
O	5.980259	6.512369	8.549615
O	1.832624	5.930535	16.336192
O	5.980259	5.930535	12.697250
O	4.401981	5.980259	14.225804
O	5.930535	4.401981	14.275528
O	6.512369	3.893288	10.127893
O	0.254346	6.462645	10.660003
O	2.364734	0.254346	14.757914
O	8.040923	2.315010	10.078169
O	3.893288	1.832624	14.807638
Ba	0.000000	4.147635	12.442904
Ba	4.147635	4.147635	8.295269
Ba	4.147635	0.000000	12.442904
Ba	0.000000	0.000000	8.295269
N	2.857660	11.152929	2.857660
N	2.857660	9.585243	7.005295
N	1.289974	15.300564	2.857660
N	7.005295	11.152929	1.289974
N	5.437609	13.732878	5.437609
N	1.289974	13.732878	7.005295
N	7.005295	9.585243	5.437609
N	5.437609	15.300564	1.289974
O	6.462645	10.660003	0.254346
O	1.782900	16.336192	2.315010
O	1.832624	14.807638	3.893288
O	2.315010	10.078169	8.040923
O	2.315010	10.660003	3.893288
O	3.893288	10.610279	2.364734
O	2.364734	12.188558	2.315010
O	1.782900	12.697250	6.462645
O	8.040923	10.127893	5.930535
O	5.930535	16.336192	1.832624
O	0.254346	14.275528	6.512369
O	4.401981	14.757914	1.782900
O	6.512369	8.549615	5.980259
O	6.462645	10.078169	4.401981
O	5.980259	14.807638	0.254346
O	1.832624	14.225804	8.040923
O	5.980259	14.225804	4.401981
O	4.401981	14.275528	5.930535
O	5.930535	12.697250	5.980259
O	6.512369	12.188558	1.832624
O	0.254346	14.757914	2.364734
O	2.364734	8.549615	6.462645
O	8.040923	10.610279	1.782900
O	3.893288	10.127893	6.512369
Ba	0.000000	12.442904	4.147635
Ba	4.147635	12.442904	0.000000
Ba	4.147635	8.295269	4.147635
Ba	0.000000	8.295269	0.000000
N	2.857660	11.152929	11.152929
N	2.857660	9.585243	15.300564
N	1.289974	15.300564	11.152929
N	7.005295	11.152929	9.585243
N	5.437609	13.732878	13.732878
N	1.289974	13.732878	15.300564
N	7.005295	9.585243	13.732878
N	5.437609	15.300564	9.585243
O	6.462645	10.660003	8.549615
O	1.782900	16.336192	10.610279
O	1.832624	14.807638	12.188558
O	2.315010	10.078169	16.336192
O	2.315010	10.660003	12.188558
O	3.893288	10.610279	10.660003
O	2.364734	12.188558	10.610279
O	1.782900	12.697250	14.757914
O	8.040923	10.127893	14.225804
O	5.930535	16.336192	10.127893
O	0.254346	14.275528	14.807638
O	4.401981	14.757914	10.078169
O	6.512369	8.549615	14.275528
O	6.462645	10.078169	12.697250
O	5.980259	14.807638	8.549615
O	1.832624	14.225804	16.336192
O	5.980259	14.225804	12.697250
O	4.401981	14.275528	14.225804
O	5.930535	12.697250	14.275528
O	6.512369	12.188558	10.127893
O	0.254346	14.757914	10.660003
O	2.364734	8.549615	14.757914
O	8.040923	10.610279	10.078169
O	3.893288	10.127893	14.807638
Ba	0.000000	12.442904	12.442904
Ba	4.147635	12.442904	8.295269
Ba	4.147635	8.295269	12.442904
Ba	0.000000	8.295269	8.295269
N	11.152929	2.857660	2.857660
N	11.152929	1.289974	7.005295
N	9.585243	7.005295	2.857660
N	15.300564	2.857660	1.289974
N	13.732878	5.437609	5.437609
N	9.585243	5.437609	7.005295
N	15.300564	1.289974	5.437609
N	13.732878	7.005295	1.289974
O	14.757914	2.364734	0.254346
O	10.078169	8.040923	2.315010
O	10.127893	6.512369	3.893288
O	10.610279	1.782900	8.040923
O	10.610279	2.364734	3.893288
O	12.188558	2.315010	2.364734
O	10.660003	3.893288	2.315010
O	10.078169	4.401981	6.462645
O	16.336192	1.832624	5.930535
O	14.225804	8.040923	1.832624
O	8.549615	5.980259	6.512369
O	12.697250	6.462645	1.782900
O	14.807638	0.254346	5.980259
O	14.757914	1.782900	4.401981
O	14.275528	6.512369	0.254346
O	10.127893	5.930535	8.040923
O	14.275528	5.930535	4.401981
O	12.697250	5.980259	5.930535
O	14.225804	4.401981	5.980259
O	14.807638	3.893288	1.832624
O	8.549615	6.462645	2.364734
O	10.660003	0.254346	6.462645
O	16.336192	2.315010	1.782900
O	12.188558	1.832624	6.512369
Ba	8.295269	4.147635	4.147635
Ba	12.442904	4.147635	0.000000
Ba	12.442904	0.000000	4.147635
Ba	8.295269	0.000000	0.000000
N	11.152929	2.857660	11.152929
N	11.152929	1.289974	15.300564
N	9.585243	7.005295	11.152929
N	15.300564	2.857660	9.585243
N	13.732878	5.437609	13.732878
N	9.585243	5.437609	15.300564
N	15.300564	1.289974	13.732878
N	13.732878	7.005295	9.585243
O	14.757914	2.364734	8.549615
O	10.078169	8.040923	10.610279
O	10.127893	6.512369	12.188558
O	10.610279	1.782900	16.336192
O	10.610279	2.364734	12.188558
O	12.188558	2.315010	10.660003
O	10.660003	3.893288	10.610279
O	10.078169	4.401981	14.757914
O	16.336192	1.832624	14.225804
O	14.225804	8.040923	10.127893
O	8.549615	5.980259	14.807638
O	12.697250	6.462645	10.078169
O	14.807638	0.254346	14.275528
O	14.757914	1.782900	12.697250
O	14.275528	6.512369	8.549615
O	10.127893	5.930535	16.336192
O	14.275528	5.930535	12.697250
O	12.697250	5.980259	14.225804
O	14.225804	4.401981	14.275528
O	14.807638	3.893288	10.127893
O	8.549615	6.462645	10.660003
O	10.660003	0.254346	14.757914
O	16.336192	2.315010	10.078169
O	12.188558	1.832624	14.807638
Ba	8.295269	4.147635	12.442904
Ba	12.442904	4.147635	8.295269
Ba	12.442904	0.000000	12.442904
Ba	8.295269	0.000000	8.295269
N	11.152929	11.152929	2.857660
N	11.152929	9.585243	7.005295
N	9.585243	15.300564	2.857660
N	15.300564	11.152929	1.289974
N	13.732878	13.732878	5.437609
N	9.585243	13.732878	7.005295
N	15.300564	9.585243	5.437609
N	13.732878	15.300564	1.289974
O	14.757914	10.660003	0.254346
O	10.078169	16.336192	2.315010
O	10.127893	14.807638	3.893288
O	10.610279	10.078169	8.040923
O	10.610279	10.660003	3.893288
O	12.188558	10.610279	2.364734
O	10.660003	12.188558	2.315010
O	10.078169	12.697250	6.462645
O	16.336192	10.127893	5.930535
O	14.225804	16.336192	1.832624
O	8.549615	14.275528	6.512369
O	12.697250	14.757914	1.782900
O	14.807638	8.549615	5.980259
O	14.757914	10.078169	4.401981
O	14.275528	14.807638	0.254346
O	10.127893	14.225804	8.040923
O	14.275528	14.225804	4.401981
O	12.697250	14.275528	5.930535
O	14.225804	12.697250	5.980259
O	14.807638	12.188558	1.832624
O	8.549615	14.757914	2.364734
O	10.660003	8.549615	6.462645
O	16.336192	10.610279	1.782900
O	12.188558	10.127893	6.512369
Ba	8.295269	12.442904	4.147635
Ba	12.442904	12.442904	0.000000
Ba	12.442904	8.295269	4.147635
Ba	8.295269	8.295269	0.000000
N	11.152929	11.152929	11.152929
N	11.152929	9.585243	15.300564
N	9.585243	15.300564	11.152929
N	15.300564	11.152929	9.585243
N	13.732878	13.732878	13.732878
N	9.585243	13.732878	15.300564
N	15.300564	9.585243	13.732878
N	13.732878	15.300564	9.585243
O	14.757914	10.660003	8.549615
O	10.078169	16.336192	10.610279
O	10.127893	14.807638	12.188558
O	10.610279	10.078169	16.336192
O	10.610279	10.660003	12.188558
O	12.188558	10.610279	10.660003
O	10.660003	12.188558	10.610279
O	10.078169	12.697250	14.757914
O	16.336192	10.127893	14.225804
O	14.225804	16.336192	10.127893
O	8.549615	14.275528	14.807638
O	12.697250	14.757914	10.078169
O	14.807638	8.549615	14.275528
O	14.757914	10.078169	12.697250
O	14.275528	14.807638	8.549615
O	10.127893	14.225804	16.336192
O	14.275528	14.225804	12.697250
O	12.697250	14.275528	14.225804
O	14.225804	12.697250	14.275528
O	14.807638	12.188558	10.127893
O	8.549615	14.757914	10.660003
O	10.660003	8.549615	14.757914
O	16.336192	10.610279	10.078169
O	12.188558	10.127893	14.807638
Ba	8.295269	12.442904	12.442904
Ba	12.442904	12.442904	8.295269
Ba	12.442904	8.295269	12.442904
Ba	8.295269	8.295269	8.295269
