288

N	2.855012	2.855012	2.855012
N	2.855012	1.288703	6.998726
N	1.288703	6.998726	2.855012
N	6.998726	2.855012	1.288703
N	5.432417	5.432417	5.432417
N	1.288703	5.432417	6.998726
N	6.998726	1.288703	5.432417
N	5.432417	6.998726	1.288703
O	6.456782	2.361392	0.253073
O	1.782322	8.034356	2.313067
O	1.830647	6.505106	3.890641
O	2.313067	1.782322	8.034356
O	2.313067	2.361392	3.890641
O	3.890641	2.313067	2.361392
O	2.361392	3.890641	2.313067
O	1.782322	4.396787	6.456782
O	8.034356	1.830647	5.926037
O	5.926037	8.034356	1.830647
O	0.253073	5.974361	6.505106
O	4.396787	6.456782	1.782322
O	6.505106	0.253073	5.974361
O	6.456782	1.782322	4.396787
O	5.974361	6.505106	0.253073
O	1.830647	5.926037	8.034356
O	5.974361	5.926037	4.396787
O	4.396787	5.974361	5.926037
O	5.926037	4.396787	5.974361
O	6.505106	3.890641	1.830647
O	0.253073	6.456782	2.361392
O	2.361392	0.253073	6.456782
O	8.034356	2.313067	1.782322
O	3.890641	1.830647	6.505106
Ba	0.000000	4.143714	4.143714
Ba	4.143714	4.143714	0.000000
Ba	4.143714	0.000000	4.143714
Ba	0.000000	0.000000	0.000000
N	2.855012	2.855012	11.142440
N	2.855012	1.288703	15.286154
N	1.288703	6.998726	11.142440
N	6.998726	2.855012	9.576131
N	5.432417	5.432417	13.719845
N	1.288703	5.432417	15.286154
N	6.998726	1.288703	13.719845
N	5.432417	6.998726	9.576131
O	6.456782	2.361392	8.540501
O	1.782322	8.034356	10.600496
O	1.830647	6.505106	12.178070
O	2.313067	1.782322	16.321784
O	2.313067	2.361392	12.178070
O	3.890641	2.313067	10.648820
O	2.361392	3.890641	10.600496
O	1.782322	4.396787	14.744210
O	8.034356	1.830647	14.213465
O	5.926037	8.034356	10.118075
O	0.253073	5.974361	14.792534
O	4.396787	6.456782	10.069751
O	6.505106	0.253073	14.261790
O	6.456782	1.782322	12.684215
O	5.974361	6.505106	8.540501
O	1.830647	5.926037	16.321784
O	5.974361	5.926037	12.684215
O	4.396787	5.974361	14.213465
O	5.926037	4.396787	14.261790
O	6.505106	3.890641	10.118075
O	0.253073	6.456782	10.648820
O	2.361392	0.253073	14.744210
O	8.034356	2.313067	10.069751
O	3.890641	1.830647	14.792534
Ba	0.000000	4.143714	12.431143
Ba	4.143714	4.143714	8.287428
Ba	4.143714	0.000000	12.431143
Ba	0.000000	0.000000	8.287428
N	2.855012	11.142440	2.855012
N	2.855012	9.576131	6.998726
N	1.288703	15.286154	2.855012
N	6.998726	11.142440	1.288703
N	5.432417	13.719845	5.432417
N	1.288703	13.719845	6.998726
N	6.998726	9.576131	5.432417
N	5.432417	15.286154	1.288703
O	6.456782	10.648820	0.253073
O	1.782322	16.321784	2.313067
O	1.830647	14.792534	3.890641
O	2.313067	10.069751	8.034356
O	2.313067	10.648820	3.890641
O	3.890641	10.600496	2.361392
O	2.361392	12.178070	2.313067
O	1.782322	12.684215	6.456782
O	8.034356	10.118075	5.926037
O	5.926037	16.321784	1.830647
O	0.253073	14.261790	6.505106
O	4.396787	14.744210	1.782322
O	6.505106	8.540501	5.974361
O	6.456782	10.069751	4.396787
O	5.974361	14.792534	0.253073
O	1.830647	14.213465	8.034356
O	5.974361	14.213465	4.396787
O	4.396787	14.261790	5.926037
O	5.926037	12.684215	5.974361
O	6.505106	12.178070	1.830647
O	0.253073	14.744210	2.361392
O	2.361392	8.540501	6.456782
O	8.034356	10.600496	1.782322
O	3.890641	10.118075	6.505106
Ba	0.000000	12.431143	4.143714
Ba	4.143714	12.431143	0.000000
Ba	4.143714	8.287428	4.143714
Ba	0.000000	8.287428	0.000000
N	2.855012	11.142440	11.142440
N	2.855012	9.576131	15.286154
N	1.288703	15.286154	11.142440
N	6.998726	11.142440	9.576131
N	5.432417	13.719845	13.719845
N	1.288703	13.719845	15.286154
N	6.998726	9.576131	13.719845
N	5.432417	15.286154	9.576131
O	6.456782	10.648820	8.540501
O	1.782322	16.321784	10.600496
O	1.830647	14.792534	12.178070
O	2.313067	10.069751	16.321784
O	2.313067	10.648820	12.178070
O	3.890641	10.600496	10.648820
O	2.361392	12.178070	10.600496
O	1.782322	12.684215	14.744210
O	8.034356	10.118075	14.213465
O	5.926037	16.321784	10.118075
O	0.253073	14.261790	14.792534
O	4.396787	14.744210	10.069751
O	6.505106	8.540501	14.261790
O	6.456782	10.069751	12.684215
O	5.974361	14.792534	8.540501
O	1.830647	14.213465	16.321784
O	5.974361	14.213465	12.684215
O	4.396787	14.261790	14.213465
O	5.926037	12.684215	14.261790
O	6.505106	12.178070	10.118075
O	0.253073	14.744210	10.648820
O	2.361392	8.540501	14.744210
O	8.034356	10.600496	10.069751
O	3.890641	10.118075	14.792534
Ba	0.000000	12.431143	12.431143
Ba	4.143714	12.431143	8.287428
Ba	4.143714	8.287428	12.431143
Ba	0.000000	8.287428	8.287428
N	11.142440	2.855012	2.855012
N	11.142440	1.288703	6.998726
N	9.576131	6.998726	2.855012
N	15.286154	2.855012	1.288703
N	13.719845	5.432417	5.432417
N	9.576131	5.432417	6.998726
N	15.286154	1.288703	5.432417
N	13.719845	6.998726	1.288703
O	14.744210	2.361392	0.253073
O	10.069751	8.034356	2.313067
O	10.118075	6.505106	3.890641
O	10.600496	1.782322	8.034356
O	10.600496	2.361392	3.890641
O	12.178070	2.313067	2.361392
O	10.648820	3.890641	2.313067
O	10.069751	4.396787	6.456782
O	16.321784	1.830647	5.926037
O	14.213465	8.034356	1.830647
O	8.540501	5.974361	6.505106
O	12.684215	6.456782	1.782322
O	14.792534	0.253073	5.974361
O	14.744210	1.782322	4.396787
O	14.261790	6.505106	0.253073
O	10.118075	5.926037	8.034356
O	14.261790	5.926037	4.396787
O	12.684215	5.974361	5.926037
O	14.213465	4.396787	5.974361
O	14.792534	3.890641	1.830647
O	8.540501	6.456782	2.361392
O	10.648820	0.253073	6.456782
O	16.321784	2.313067	1.782322
O	12.178070	1.830647	6.505106
Ba	8.287428	4.143714	4.143714
Ba	12.431143	4.143714	0.000000
Ba	12.431143	0.000000	4.143714
Ba	8.287428	0.000000	0.000000
N	11.142440	2.855012	11.142440
N	11.142440	1.288703	15.286154
N	9.576131	6.998726	11.142440
N	15.286154	2.855012	9.576131
N	13.719845	5.432417	13.719845
N	9.576131	5.432417	15.286154
N	15.286154	1.288703	13.719845
N	13.719845	6.998726	9.576131
O	14.744210	2.361392	8.540501
O	10.069751	8.034356	10.600496
O	10.118075	6.505106	12.178070
O	10.600496	1.782322	16.321784
O	10.600496	2.361392	12.178070
O	12.178070	2.313067	10.648820
O	10.648820	3.890641	10.600496
O	10.069751	4.396787	14.744210
O	16.321784	1.830647	14.213465
O	14.213465	8.034356	10.118075
O	8.540501	5.974361	14.792534
O	12.684215	6.456782	10.069751
O	14.792534	0.253073	14.261790
O	14.744210	1.782322	12.684215
O	14.261790	6.505106	8.540501
O	10.118075	5.926037	16.321784
O	14.261790	5.926037	12.684215
O	12.684215	5.974361	14.213465
O	14.213465	4.396787	14.261790
O	14.792534	3.890641	10.118075
O	8.540501	6.456782	10.648820
O	10.648820	0.253073	14.744210
O	16.321784	2.313067	10.069751
O	12.178070	1.830647	14.792534
Ba	8.287428	4.143714	12.431143
Ba	12.431143	4.143714	8.287428
Ba	12.431143	0.000000	12.431143
Ba	8.287428	0.000000	8.287428
N	11.142440	11.142440	2.855012
N	11.142440	9.576131	6.998726
N	9.576131	15.286154	2.855012
N	15.286154	11.142440	1.288703
N	13.719845	13.719845	5.432417
N	9.576131	13.719845	6.998726
N	15.286154	9.576131	5.432417
N	13.719845	15.286154	1.288703
O	14.744210	10.648820	0.253073
O	10.069751	16.321784	2.313067
O	10.118075	14.792534	3.890641
O	10.600496	10.069751	8.034356
O	10.600496	10.648820	3.890641
O	12.178070	10.600496	2.361392
O	10.648820	12.178070	2.313067
O	10.069751	12.684215	6.456782
O	16.321784	10.118075	5.926037
O	14.213465	16.321784	1.830647
O	8.540501	14.261790	6.505106
O	12.684215	14.744210	1.782322
O	14.792534	8.540501	5.974361
O	14.744210	10.069751	4.396787
O	14.261790	14.792534	0.253073
O	10.118075	14.213465	8.034356
O	14.261790	14.213465	4.396787
O	12.684215	14.261790	5.926037
O	14.213465	12.684215	5.974361
O	14.792534	12.178070	1.830647
O	8.540501	14.744210	2.361392
O	10.648820	8.540501	6.456782
O	16.321784	10.600496	1.782322
O	12.178070	10.118075	6.505106
Ba	8.287428	12.431143	4.143714
Ba	12.431143	12.431143	0.000000
Ba	12.431143	8.287428	4.143714
Ba	8.287428	8.287428	0.000000
N	11.142440	11.142440	11.142440
N	11.142440	9.576131	15.286154
N	9.576131	15.286154	11.142440
N	15.286154	11.142440	9.576131
N	13.719845	13.719845	13.719845
N	9.576131	13.719845	15.286154
N	15.286154	9.576131	13.719845
N	13.719845	15.286154	9.576131
O	14.744210	10.648820	8.540501
O	10.069751	16.321784	10.600496
O	10.118075	14.792534	12.178070
O	10.600496	10.069751	16.321784
O	10.600496	10.648820	12.178070
O	12.178070	10.600496	10.648820
O	10.648820	12.178070	10.600496
O	10.069751	12.684215	14.744210
O	16.321784	10.118075	14.213465
O	14.213465	16.321784	10.118075
O	8.540501	14.261790	14.792534
O	12.684215	14.744210	10.069751
O	14.792534	8.540501	14.261790
O	14.744210	10.069751	12.684215
O	14.261790	14.792534	8.540501
O	10.118075	14.213465	16.321784
O	14.261790	14.213465	12.684215
O	12.684215	14.261790	14.213465
O	14.213465	12.684215	14.261790
O	14.792534	12.178070	10.118075
O	8.540501	14.744210	10.648820
O	10.648820	8.540501	14.744210
O	16.321784	10.600496	10.069751
O	12.178070	10.118075	14.792534
Ba	8.287428	12.431143	12.431143
Ba	12.431143	12.431143	8.287428
Ba	12.431143	8.287428	12.431143
Ba	8.287428	8.287428	8.287428
