40

Hf	0.000000	0.000000	0.000000
Ni	1.851779	1.851779	1.851779
O	1.851779	1.851779	0.000000
O	1.851779	0.000000	1.851779
O	0.000000	1.851779	1.851779
Hf	0.000000	0.000000	3.703558
Ni	1.851779	1.851779	5.555337
O	1.851779	1.851779	3.703558
O	1.851779	0.000000	5.555337
O	0.000000	1.851779	5.555337
Hf	0.000000	3.703558	0.000000
Ni	1.851779	5.555337	1.851779
O	1.851779	5.555337	0.000000
O	1.851779	3.703558	1.851779
O	0.000000	5.555337	1.851779
Hf	0.000000	3.703558	3.703558
Ni	1.851779	5.555337	5.555337
O	1.851779	5.555337	3.703558
O	1.851779	3.703558	5.555337
O	0.000000	5.555337	5.555337
Hf	3.703558	0.000000	0.000000
Ni	5.555337	1.851779	1.851779
O	5.555337	1.851779	0.000000
O	5.555337	0.000000	1.851779
O	3.703558	1.851779	1.851779
Hf	3.703558	0.000000	3.703558
Ni	5.555337	1.851779	5.555337
O	5.555337	1.851779	3.703558
O	5.555337	0.000000	5.555337
O	3.703558	1.851779	5.555337
Hf	3.703558	3.703558	0.000000
Ni	5.555337	5.555337	1.851779
O	5.555337	5.555337	0.000000
O	5.555337	3.703558	1.851779
O	3.703558	5.555337	1.851779
Hf	3.703558	3.703558	3.703558
Ni	5.555337	5.555337	5.555337
O	5.555337	5.555337	3.703558
O	5.555337	3.703558	5.555337
O	3.703558	5.555337	5.555337
