40

O	0.000000	2.315590	2.315590
O	2.315590	0.000000	2.315590
O	2.315590	2.315590	0.000000
Pd	0.000000	0.000000	0.000000
Sr	2.315590	2.315590	2.315590
O	0.000000	2.315590	6.946770
O	2.315590	0.000000	6.946770
O	2.315590	2.315590	4.631180
Pd	0.000000	0.000000	4.631180
Sr	2.315590	2.315590	6.946770
O	0.000000	6.946770	2.315590
O	2.315590	4.631180	2.315590
O	2.315590	6.946770	0.000000
Pd	0.000000	4.631180	0.000000
Sr	2.315590	6.946770	2.315590
O	0.000000	6.946770	6.946770
O	2.315590	4.631180	6.946770
O	2.315590	6.946770	4.631180
Pd	0.000000	4.631180	4.631180
Sr	2.315590	6.946770	6.946770
O	4.631180	2.315590	2.315590
O	6.946770	0.000000	2.315590
O	6.946770	2.315590	0.000000
Pd	4.631180	0.000000	0.000000
Sr	6.946770	2.315590	2.315590
O	4.631180	2.315590	6.946770
O	6.946770	0.000000	6.946770
O	6.946770	2.315590	4.631180
Pd	4.631180	0.000000	4.631180
Sr	6.946770	2.315590	6.946770
O	4.631180	6.946770	2.315590
O	6.946770	4.631180	2.315590
O	6.946770	6.946770	0.000000
Pd	4.631180	4.631180	0.000000
Sr	6.946770	6.946770	2.315590
O	4.631180	6.946770	6.946770
O	6.946770	4.631180	6.946770
O	6.946770	6.946770	4.631180
Pd	4.631180	4.631180	4.631180
Sr	6.946770	6.946770	6.946770
