40

O	0.000000	2.013595	2.013595
O	2.013595	0.000000	2.013595
O	2.013595	2.013595	0.000000
Pd	2.013595	2.013595	2.013595
Sr	0.000000	0.000000	0.000000
O	0.000000	2.013595	6.040785
O	2.013595	0.000000	6.040785
O	2.013595	2.013595	4.027190
Pd	2.013595	2.013595	6.040785
Sr	0.000000	0.000000	4.027190
O	0.000000	6.040785	2.013595
O	2.013595	4.027190	2.013595
O	2.013595	6.040785	0.000000
Pd	2.013595	6.040785	2.013595
Sr	0.000000	4.027190	0.000000
O	0.000000	6.040785	6.040785
O	2.013595	4.027190	6.040785
O	2.013595	6.040785	4.027190
Pd	2.013595	6.040785	6.040785
Sr	0.000000	4.027190	4.027190
O	4.027190	2.013595	2.013595
O	6.040785	0.000000	2.013595
O	6.040785	2.013595	0.000000
Pd	6.040785	2.013595	2.013595
Sr	4.027190	0.000000	0.000000
O	4.027190	2.013595	6.040785
O	6.040785	0.000000	6.040785
O	6.040785	2.013595	4.027190
Pd	6.040785	2.013595	6.040785
Sr	4.027190	0.000000	4.027190
O	4.027190	6.040785	2.013595
O	6.040785	4.027190	2.013595
O	6.040785	6.040785	0.000000
Pd	6.040785	6.040785	2.013595
Sr	4.027190	4.027190	0.000000
O	4.027190	6.040785	6.040785
O	6.040785	4.027190	6.040785
O	6.040785	6.040785	4.027190
Pd	6.040785	6.040785	6.040785
Sr	4.027190	4.027190	4.027190
