40

O	2.210366	2.210366	0.000000
O	2.210366	0.000000	2.210366
O	0.000000	2.210366	2.210366
Pd	0.000000	0.000000	0.000000
Sr	2.210366	2.210366	2.210366
O	2.210366	2.210366	4.420728
O	2.210366	0.000000	6.631094
O	0.000000	2.210366	6.631094
Pd	0.000000	0.000000	4.420728
Sr	2.210366	2.210366	6.631094
O	2.210366	6.631094	0.000000
O	2.210366	4.420728	2.210366
O	0.000000	6.631094	2.210366
Pd	0.000000	4.420728	0.000000
Sr	2.210366	6.631094	2.210366
O	2.210366	6.631094	4.420728
O	2.210366	4.420728	6.631094
O	0.000000	6.631094	6.631094
Pd	0.000000	4.420728	4.420728
Sr	2.210366	6.631094	6.631094
O	6.631094	2.210366	0.000000
O	6.631094	0.000000	2.210366
O	4.420728	2.210366	2.210366
Pd	4.420728	0.000000	0.000000
Sr	6.631094	2.210366	2.210366
O	6.631094	2.210366	4.420728
O	6.631094	0.000000	6.631094
O	4.420728	2.210366	6.631094
Pd	4.420728	0.000000	4.420728
Sr	6.631094	2.210366	6.631094
O	6.631094	6.631094	0.000000
O	6.631094	4.420728	2.210366
O	4.420728	6.631094	2.210366
Pd	4.420728	4.420728	0.000000
Sr	6.631094	6.631094	2.210366
O	6.631094	6.631094	4.420728
O	6.631094	4.420728	6.631094
O	4.420728	6.631094	6.631094
Pd	4.420728	4.420728	4.420728
Sr	6.631094	6.631094	6.631094
