112

Er	0.000000	0.000000	0.000000
Er	2.428972	-2.429259	-2.429259
O	3.673086	-1.184406	-1.184406
O	-1.184858	1.184406	-3.674112
O	1.184858	-1.184406	-3.674112
O	1.244114	1.244853	-1.244853
O	6.042802	1.184406	-1.184406
O	1.244114	3.613664	-3.613664
O	3.613830	3.613664	-1.244853
O	3.613830	1.244853	-3.613664
Tl	-1.214486	-1.214629	-3.643888
Tl	3.643458	1.214629	-1.214629
Tl	6.072430	-1.214629	-1.214629
Tl	1.214486	1.214629	-3.643888
Er	4.857944	4.858517	0.000000
Er	7.286916	2.429259	-2.429259
O	8.531030	3.674112	-1.184406
O	3.673086	6.042923	-3.674112
O	6.042802	3.674112	-3.674112
O	6.102058	6.103370	-1.244853
O	10.900746	6.042923	-1.184406
O	6.102058	8.472182	-3.613664
O	8.471774	8.472182	-1.244853
O	8.471774	6.103370	-3.613664
Tl	3.643458	3.643888	-3.643888
Tl	8.501402	6.073147	-1.214629
Tl	10.930374	3.643888	-1.214629
Tl	6.072430	6.073147	-3.643888
Er	-4.857944	0.000000	-4.858517
Er	-2.428972	-2.429259	-7.287776
O	-1.184858	-1.184406	-6.042923
O	-6.042802	1.184406	-8.532629
O	-3.673086	-1.184406	-8.532629
O	-3.613830	1.244853	-6.103370
O	1.184858	1.184406	-6.042923
O	-3.613830	3.613664	-8.472182
O	-1.244114	3.613664	-6.103370
O	-1.244114	1.244853	-8.472182
Tl	-6.072430	-1.214629	-8.502405
Tl	-1.214486	1.214629	-6.073147
Tl	1.214486	-1.214629	-6.073147
Tl	-3.643458	1.214629	-8.502405
Er	0.000000	4.858517	-4.858517
Er	2.428972	2.429259	-7.287776
O	3.673086	3.674112	-6.042923
O	-1.184858	6.042923	-8.532629
O	1.184858	3.674112	-8.532629
O	1.244114	6.103370	-6.103370
O	6.042802	6.042923	-6.042923
O	1.244114	8.472182	-8.472182
O	3.613830	8.472182	-6.103370
O	3.613830	6.103370	-8.472182
Tl	-1.214486	3.643888	-8.502405
Tl	3.643458	6.073147	-6.073147
Tl	6.072430	3.643888	-6.073147
Tl	1.214486	6.073147	-8.502405
Er	4.857944	-4.858517	0.000000
Er	7.286916	-7.287776	-2.429259
O	8.531030	-6.042923	-1.184406
O	3.673086	-3.674112	-3.674112
O	6.042802	-6.042923	-3.674112
O	6.102058	-3.613664	-1.244853
O	10.900746	-3.674112	-1.184406
O	6.102058	-1.244853	-3.613664
O	8.471774	-1.244853	-1.244853
O	8.471774	-3.613664	-3.613664
Tl	3.643458	-6.073147	-3.643888
Tl	8.501402	-3.643888	-1.214629
Tl	10.930374	-6.073147	-1.214629
Tl	6.072430	-3.643888	-3.643888
Er	9.715888	0.000000	0.000000
Er	12.144860	-2.429259	-2.429259
O	13.388974	-1.184406	-1.184406
O	8.531030	1.184406	-3.674112
O	10.900746	-1.184406	-3.674112
O	10.960002	1.244853	-1.244853
O	15.758690	1.184406	-1.184406
O	10.960002	3.613664	-3.613664
O	13.329718	3.613664	-1.244853
O	13.329718	1.244853	-3.613664
Tl	8.501402	-1.214629	-3.643888
Tl	13.359346	1.214629	-1.214629
Tl	15.788318	-1.214629	-1.214629
Tl	10.930374	1.214629	-3.643888
Er	0.000000	-4.858517	-4.858517
Er	2.428972	-7.287776	-7.287776
O	3.673086	-6.042923	-6.042923
O	-1.184858	-3.674112	-8.532629
O	1.184858	-6.042923	-8.532629
O	1.244114	-3.613664	-6.103370
O	6.042802	-3.674112	-6.042923
O	1.244114	-1.244853	-8.472182
O	3.613830	-1.244853	-6.103370
O	3.613830	-3.613664	-8.472182
Tl	-1.214486	-6.073147	-8.502405
Tl	3.643458	-3.643888	-6.073147
Tl	6.072430	-6.073147	-6.073147
Tl	1.214486	-3.643888	-8.502405
Er	4.857944	0.000000	-4.858517
Er	7.286916	-2.429259	-7.287776
O	8.531030	-1.184406	-6.042923
O	3.673086	1.184406	-8.532629
O	6.042802	-1.184406	-8.532629
O	6.102058	1.244853	-6.103370
O	10.900746	1.184406	-6.042923
O	6.102058	3.613664	-8.472182
O	8.471774	3.613664	-6.103370
O	8.471774	1.244853	-8.472182
Tl	3.643458	-1.214629	-8.502405
Tl	8.501402	1.214629	-6.073147
Tl	10.930374	-1.214629	-6.073147
Tl	6.072430	1.214629	-8.502405
