40

O	2.210200	0.000000	2.210200
O	0.000000	2.210200	2.210200
O	2.210200	2.210200	0.000000
Sm_3	2.210200	2.210200	2.210200
Te	0.000000	0.000000	0.000000
O	2.210200	0.000000	6.630614
O	0.000000	2.210200	6.630614
O	2.210200	2.210200	4.420414
Sm_3	2.210200	2.210200	6.630614
Te	0.000000	0.000000	4.420414
O	2.210200	4.420414	2.210200
O	0.000000	6.630614	2.210200
O	2.210200	6.630614	0.000000
Sm_3	2.210200	6.630614	2.210200
Te	0.000000	4.420414	0.000000
O	2.210200	4.420414	6.630614
O	0.000000	6.630614	6.630614
O	2.210200	6.630614	4.420414
Sm_3	2.210200	6.630614	6.630614
Te	0.000000	4.420414	4.420414
O	6.630614	0.000000	2.210200
O	4.420414	2.210200	2.210200
O	6.630614	2.210200	0.000000
Sm_3	6.630614	2.210200	2.210200
Te	4.420414	0.000000	0.000000
O	6.630614	0.000000	6.630614
O	4.420414	2.210200	6.630614
O	6.630614	2.210200	4.420414
Sm_3	6.630614	2.210200	6.630614
Te	4.420414	0.000000	4.420414
O	6.630614	4.420414	2.210200
O	4.420414	6.630614	2.210200
O	6.630614	6.630614	0.000000
Sm_3	6.630614	6.630614	2.210200
Te	4.420414	4.420414	0.000000
O	6.630614	4.420414	6.630614
O	4.420414	6.630614	6.630614
O	6.630614	6.630614	4.420414
Sm_3	6.630614	6.630614	6.630614
Te	4.420414	4.420414	4.420414
