112

O	3.689046	-1.056928	-1.056928
O	-1.057220	1.056928	-3.691146
O	1.057220	-1.056928	-3.691146
O	1.315913	1.317109	-1.317109
O	5.803485	1.056928	-1.056928
O	1.315913	3.430965	-3.430965
O	3.430352	3.430965	-1.317109
O	3.430352	1.317109	-3.430965
Th	0.000000	0.000000	0.000000
Th	2.373133	-2.374037	-2.374037
Zr	-1.186566	-1.187019	-3.561056
Zr	3.559699	1.187019	-1.187019
Zr	5.932832	-1.187019	-1.187019
Zr	1.186566	1.187019	-3.561056
O	8.435311	3.691146	-1.056928
O	3.689046	5.805003	-3.691146
O	5.803485	3.691146	-3.691146
O	6.062178	6.065184	-1.317109
O	10.549750	5.805003	-1.056928
O	6.062178	8.179040	-3.430965
O	8.176617	8.179040	-1.317109
O	8.176617	6.065184	-3.430965
Th	4.746265	4.748075	0.000000
Th	7.119398	2.374037	-2.374037
Zr	3.559699	3.561056	-3.561056
Zr	8.305964	5.935093	-1.187019
Zr	10.679097	3.561056	-1.187019
Zr	5.932832	5.935093	-3.561056
O	-1.057220	-1.056928	-5.805003
O	-5.803485	1.056928	-8.439221
O	-3.689046	-1.056928	-8.439221
O	-3.430352	1.317109	-6.065184
O	1.057220	1.056928	-5.805003
O	-3.430352	3.430965	-8.179040
O	-1.315913	3.430965	-6.065184
O	-1.315913	1.317109	-8.179040
Th	-4.746265	0.000000	-4.748075
Th	-2.373133	-2.374037	-7.122112
Zr	-5.932832	-1.187019	-8.309130
Zr	-1.186566	1.187019	-5.935093
Zr	1.186566	-1.187019	-5.935093
Zr	-3.559699	1.187019	-8.309130
O	3.689046	3.691146	-5.805003
O	-1.057220	5.805003	-8.439221
O	1.057220	3.691146	-8.439221
O	1.315913	6.065184	-6.065184
O	5.803485	5.805003	-5.805003
O	1.315913	8.179040	-8.179040
O	3.430352	8.179040	-6.065184
O	3.430352	6.065184	-8.179040
Th	0.000000	4.748075	-4.748075
Th	2.373133	2.374037	-7.122112
Zr	-1.186566	3.561056	-8.309130
Zr	3.559699	5.935093	-5.935093
Zr	5.932832	3.561056	-5.935093
Zr	1.186566	5.935093	-8.309130
O	8.435311	-5.805003	-1.056928
O	3.689046	-3.691147	-3.691146
O	5.803485	-5.805003	-3.691146
O	6.062178	-3.430965	-1.317109
O	10.549750	-3.691147	-1.056928
O	6.062178	-1.317109	-3.430965
O	8.176617	-1.317109	-1.317109
O	8.176617	-3.430965	-3.430965
Th	4.746265	-4.748075	0.000000
Th	7.119398	-7.122112	-2.374037
Zr	3.559699	-5.935093	-3.561056
Zr	8.305964	-3.561056	-1.187019
Zr	10.679097	-5.935093	-1.187019
Zr	5.932832	-3.561056	-3.561056
O	13.181576	-1.056928	-1.056928
O	8.435311	1.056928	-3.691146
O	10.549750	-1.056928	-3.691146
O	10.808444	1.317109	-1.317109
O	15.296015	1.056928	-1.056928
O	10.808443	3.430965	-3.430965
O	12.922883	3.430965	-1.317109
O	12.922883	1.317109	-3.430965
Th	9.492530	0.000000	0.000000
Th	11.865663	-2.374037	-2.374037
Zr	8.305964	-1.187019	-3.561056
Zr	13.052229	1.187019	-1.187019
Zr	15.425362	-1.187019	-1.187019
Zr	10.679097	1.187019	-3.561056
O	3.689046	-5.805003	-5.805003
O	-1.057220	-3.691147	-8.439221
O	1.057220	-5.805003	-8.439221
O	1.315913	-3.430965	-6.065184
O	5.803485	-3.691147	-5.805003
O	1.315913	-1.317109	-8.179040
O	3.430352	-1.317109	-6.065184
O	3.430352	-3.430965	-8.179040
Th	0.000000	-4.748075	-4.748075
Th	2.373133	-7.122112	-7.122112
Zr	-1.186566	-5.935093	-8.309130
Zr	3.559699	-3.561056	-5.935093
Zr	5.932832	-5.935093	-5.935093
Zr	1.186566	-3.561056	-8.309130
O	8.435311	-1.056928	-5.805003
O	3.689046	1.056928	-8.439221
O	5.803485	-1.056928	-8.439221
O	6.062178	1.317109	-6.065184
O	10.549750	1.056928	-5.805003
O	6.062178	3.430965	-8.179040
O	8.176617	3.430965	-6.065184
O	8.176617	1.317109	-8.179040
Th	4.746265	0.000000	-4.748075
Th	7.119398	-2.374037	-7.122112
Zr	3.559699	-1.187019	-8.309130
Zr	8.305964	1.187019	-5.935093
Zr	10.679097	-1.187019	-5.935093
Zr	5.932832	1.187019	-8.309130
