112

Eu	0.000000	0.000000	0.000000
Eu	2.710286	-2.710445	-2.710446
K	-1.355143	-1.355223	-4.065668
K	4.065429	1.355223	-1.355223
K	6.775715	-1.355223	-1.355223
K	1.355143	1.355223	-4.065668
O	4.035059	-1.383968	-1.383968
O	-1.385513	1.383968	-4.036923
O	1.385513	-1.383968	-4.036923
O	1.324773	1.326478	-1.326478
O	6.806085	1.383968	-1.383968
O	1.324773	4.094413	-4.094413
O	4.095799	4.094413	-1.326478
O	4.095799	1.326478	-4.094413
Eu	5.420572	5.420891	0.000000
Eu	8.130858	2.710446	-2.710446
K	4.065429	4.065668	-4.065668
K	9.486001	6.776114	-1.355223
K	12.196287	4.065668	-1.355223
K	6.775715	6.776114	-4.065668
O	9.455631	4.036923	-1.383968
O	4.035059	6.804859	-4.036923
O	6.806085	4.036923	-4.036923
O	6.745345	6.747369	-1.326478
O	12.226658	6.804859	-1.383968
O	6.745345	9.515304	-4.094413
O	9.516371	9.515304	-1.326478
O	9.516372	6.747369	-4.094413
Eu	-5.420572	0.000000	-5.420891
Eu	-2.710286	-2.710445	-8.131337
K	-6.775715	-1.355223	-9.486559
K	-1.355143	1.355223	-6.776114
K	1.355143	-1.355223	-6.776114
K	-4.065429	1.355223	-9.486559
O	-1.385513	-1.383968	-6.804859
O	-6.806085	1.383968	-9.457814
O	-4.035059	-1.383968	-9.457814
O	-4.095799	1.326478	-6.747369
O	1.385513	1.383968	-6.804859
O	-4.095799	4.094413	-9.515304
O	-1.324773	4.094413	-6.747369
O	-1.324773	1.326478	-9.515304
Eu	0.000000	5.420891	-5.420891
Eu	2.710286	2.710446	-8.131337
K	-1.355143	4.065668	-9.486559
K	4.065429	6.776114	-6.776114
K	6.775715	4.065668	-6.776114
K	1.355143	6.776114	-9.486559
O	4.035059	4.036923	-6.804859
O	-1.385513	6.804859	-9.457814
O	1.385513	4.036923	-9.457814
O	1.324773	6.747369	-6.747369
O	6.806085	6.804859	-6.804859
O	1.324773	9.515304	-9.515304
O	4.095799	9.515304	-6.747369
O	4.095799	6.747369	-9.515304
Eu	5.420572	-5.420891	0.000000
Eu	8.130858	-8.131336	-2.710446
K	4.065429	-6.776114	-4.065668
K	9.486001	-4.065668	-1.355223
K	12.196287	-6.776114	-1.355223
K	6.775715	-4.065668	-4.065668
O	9.455631	-6.804859	-1.383968
O	4.035059	-4.036923	-4.036923
O	6.806085	-6.804859	-4.036923
O	6.745345	-4.094413	-1.326478
O	12.226658	-4.036923	-1.383968
O	6.745345	-1.326478	-4.094413
O	9.516371	-1.326478	-1.326478
O	9.516372	-4.094413	-4.094413
Eu	10.841144	0.000000	0.000000
Eu	13.551430	-2.710445	-2.710446
K	9.486001	-1.355223	-4.065668
K	14.906573	1.355223	-1.355223
K	17.616860	-1.355223	-1.355223
K	12.196287	1.355223	-4.065668
O	14.876203	-1.383968	-1.383968
O	9.455631	1.383968	-4.036923
O	12.226658	-1.383968	-4.036923
O	12.165917	1.326478	-1.326478
O	17.647230	1.383968	-1.383968
O	12.165917	4.094413	-4.094413
O	14.936944	4.094413	-1.326478
O	14.936944	1.326478	-4.094413
Eu	0.000000	-5.420891	-5.420891
Eu	2.710286	-8.131336	-8.131337
K	-1.355143	-6.776114	-9.486559
K	4.065429	-4.065668	-6.776114
K	6.775715	-6.776114	-6.776114
K	1.355143	-4.065668	-9.486559
O	4.035059	-6.804859	-6.804859
O	-1.385513	-4.036923	-9.457814
O	1.385513	-6.804859	-9.457814
O	1.324773	-4.094413	-6.747369
O	6.806085	-4.036923	-6.804859
O	1.324773	-1.326478	-9.515304
O	4.095799	-1.326478	-6.747369
O	4.095799	-4.094413	-9.515304
Eu	5.420572	0.000000	-5.420891
Eu	8.130858	-2.710445	-8.131337
K	4.065429	-1.355223	-9.486559
K	9.486001	1.355223	-6.776114
K	12.196287	-1.355223	-6.776114
K	6.775715	1.355223	-9.486559
O	9.455631	-1.383968	-6.804859
O	4.035059	1.383968	-9.457814
O	6.806085	-1.383968	-9.457814
O	6.745345	1.326478	-6.747369
O	12.226658	1.383968	-6.804859
O	6.745345	4.094413	-9.515304
O	9.516371	4.094413	-6.747369
O	9.516372	1.326478	-9.515304
