40

O	2.092640	2.092640	0.000000
O	0.000000	2.092640	2.092640
O	2.092640	0.000000	2.092640
Sc_sv	0.000000	0.000000	0.000000
Te	2.092640	2.092640	2.092640
O	2.092640	2.092640	4.185292
O	0.000000	2.092640	6.277932
O	2.092640	0.000000	6.277932
Sc_sv	0.000000	0.000000	4.185292
Te	2.092640	2.092640	6.277932
O	2.092640	6.277932	0.000000
O	0.000000	6.277932	2.092640
O	2.092640	4.185292	2.092640
Sc_sv	0.000000	4.185292	0.000000
Te	2.092640	6.277932	2.092640
O	2.092640	6.277932	4.185292
O	0.000000	6.277932	6.277932
O	2.092640	4.185292	6.277932
Sc_sv	0.000000	4.185292	4.185292
Te	2.092640	6.277932	6.277932
O	6.277932	2.092640	0.000000
O	4.185292	2.092640	2.092640
O	6.277932	0.000000	2.092640
Sc_sv	4.185292	0.000000	0.000000
Te	6.277932	2.092640	2.092640
O	6.277932	2.092640	4.185292
O	4.185292	2.092640	6.277932
O	6.277932	0.000000	6.277932
Sc_sv	4.185292	0.000000	4.185292
Te	6.277932	2.092640	6.277932
O	6.277932	6.277932	0.000000
O	4.185292	6.277932	2.092640
O	6.277932	4.185292	2.092640
Sc_sv	4.185292	4.185292	0.000000
Te	6.277932	6.277932	2.092640
O	6.277932	6.277932	4.185292
O	4.185292	6.277932	6.277932
O	6.277932	4.185292	6.277932
Sc_sv	4.185292	4.185292	4.185292
Te	6.277932	6.277932	6.277932
