40

Ca	0.000000	0.000000	0.000000
O	2.013170	2.013170	0.000000
O	0.000000	2.013170	2.013170
O	2.013170	0.000000	2.013170
Sn	1.998170	2.013170	2.013170
Ca	0.000000	0.000000	4.026339
O	2.013170	2.013170	4.026339
O	0.000000	2.013170	6.039509
O	2.013170	0.000000	6.039509
Sn	1.998170	2.013170	6.039509
Ca	0.000000	4.026339	0.000000
O	2.013170	6.039509	0.000000
O	0.000000	6.039509	2.013170
O	2.013170	4.026339	2.013170
Sn	1.998170	6.039509	2.013170
Ca	0.000000	4.026339	4.026339
O	2.013170	6.039509	4.026339
O	0.000000	6.039509	6.039509
O	2.013170	4.026339	6.039509
Sn	1.998170	6.039509	6.039509
Ca	4.026339	0.000000	0.000000
O	6.039509	2.013170	0.000000
O	4.026339	2.013170	2.013170
O	6.039509	0.000000	2.013170
Sn	6.024509	2.013170	2.013170
Ca	4.026339	0.000000	4.026339
O	6.039509	2.013170	4.026339
O	4.026339	2.013170	6.039509
O	6.039509	0.000000	6.039509
Sn	6.024509	2.013170	6.039509
Ca	4.026339	4.026339	0.000000
O	6.039509	6.039509	0.000000
O	4.026339	6.039509	2.013170
O	6.039509	4.026339	2.013170
Sn	6.024509	6.039509	2.013170
Ca	4.026339	4.026339	4.026339
O	6.039509	6.039509	4.026339
O	4.026339	6.039509	6.039509
O	6.039509	4.026339	6.039509
Sn	6.024509	6.039509	6.039509
