40

Ca	2.134039	2.134039	2.134039
O	2.134039	2.134039	0.000000
O	2.134039	0.000000	2.134039
O	0.000000	2.134039	2.134039
Sn	0.000000	0.000000	0.000000
Ca	2.134039	2.134039	6.402125
O	2.134039	2.134039	4.268087
O	2.134039	0.000000	6.402125
O	0.000000	2.134039	6.402125
Sn	0.000000	0.000000	4.268087
Ca	2.134039	6.402125	2.134039
O	2.134039	6.402125	0.000000
O	2.134039	4.268087	2.134039
O	0.000000	6.402125	2.134039
Sn	0.000000	4.268087	0.000000
Ca	2.134039	6.402125	6.402125
O	2.134039	6.402125	4.268087
O	2.134039	4.268087	6.402125
O	0.000000	6.402125	6.402125
Sn	0.000000	4.268087	4.268087
Ca	6.402125	2.134039	2.134039
O	6.402125	2.134039	0.000000
O	6.402125	0.000000	2.134039
O	4.268087	2.134039	2.134039
Sn	4.268087	0.000000	0.000000
Ca	6.402125	2.134039	6.402125
O	6.402125	2.134039	4.268087
O	6.402125	0.000000	6.402125
O	4.268087	2.134039	6.402125
Sn	4.268087	0.000000	4.268087
Ca	6.402125	6.402125	2.134039
O	6.402125	6.402125	0.000000
O	6.402125	4.268087	2.134039
O	4.268087	6.402125	2.134039
Sn	4.268087	4.268087	0.000000
Ca	6.402125	6.402125	6.402125
O	6.402125	6.402125	4.268087
O	6.402125	4.268087	6.402125
O	4.268087	6.402125	6.402125
Sn	4.268087	4.268087	4.268087
