112

B	0.000000	0.000000	0.000000
B	2.168940	-2.169094	-2.169094
O	0.871387	0.871593	-0.871593
O	1.297543	-1.297491	-3.040687
O	-1.297543	1.297491	-3.040687
O	3.040327	-1.297491	-1.297491
O	3.466482	3.466585	-0.871593
O	3.466483	0.871593	-3.466585
O	0.871387	3.466585	-3.466585
O	5.635416	1.297496	-1.297491
Tl	-1.084470	-1.084547	-3.253641
Tl	5.422339	-1.084547	-1.084547
Tl	1.084470	1.084547	-3.253641
Tl	3.253410	1.084547	-1.084547
B	4.337873	4.338183	0.000000
B	6.506813	2.169089	-2.169094
O	5.209260	5.209776	-0.871593
O	5.635416	3.040692	-3.040687
O	3.040330	5.635674	-3.040687
O	7.378199	3.040692	-1.297491
O	7.804355	7.804768	-0.871593
O	7.804355	5.209776	-3.466585
O	5.209260	7.804768	-3.466585
O	9.973289	5.635678	-1.297491
Tl	3.253403	3.253636	-3.253641
Tl	9.760212	3.253636	-1.084547
Tl	5.422343	5.422730	-3.253641
Tl	7.591283	5.422730	-1.084547
B	-4.337873	0.000000	-4.338183
B	-2.168933	-2.169094	-6.507277
O	-3.466486	0.871593	-5.209776
O	-3.040330	-1.297491	-7.378870
O	-5.635416	1.297491	-7.378870
O	-1.297546	-1.297491	-5.635674
O	-0.871390	3.466585	-5.209776
O	-0.871390	0.871593	-7.804768
O	-3.466486	3.466585	-7.804768
O	1.297543	1.297496	-5.635674
Tl	-5.422343	-1.084547	-7.591824
Tl	1.084466	-1.084547	-5.422730
Tl	-3.253403	1.084547	-7.591824
Tl	-1.084463	1.084547	-5.422730
B	0.000000	4.338183	-4.338183
B	2.168940	2.169089	-6.507277
O	0.871387	5.209776	-5.209776
O	1.297543	3.040692	-7.378870
O	-1.297543	5.635674	-7.378870
O	3.040327	3.040692	-5.635674
O	3.466482	7.804768	-5.209776
O	3.466483	5.209776	-7.804768
O	0.871387	7.804768	-7.804768
O	5.635416	5.635678	-5.635674
Tl	-1.084470	3.253636	-7.591824
Tl	5.422339	3.253636	-5.422730
Tl	1.084470	5.422730	-7.591824
Tl	3.253410	5.422730	-5.422730
B	4.337873	-4.338183	0.000000
B	6.506813	-6.507277	-2.169094
O	5.209260	-3.466590	-0.871593
O	5.635416	-5.635674	-3.040687
O	3.040330	-3.040692	-3.040687
O	7.378199	-5.635674	-1.297491
O	7.804355	-0.871597	-0.871593
O	7.804355	-3.466590	-3.466585
O	5.209260	-0.871597	-3.466585
O	9.973289	-3.040687	-1.297491
Tl	3.253403	-5.422730	-3.253641
Tl	9.760212	-5.422730	-1.084547
Tl	5.422343	-3.253636	-3.253641
Tl	7.591283	-3.253636	-1.084547
B	8.675746	0.000000	0.000000
B	10.844686	-2.169094	-2.169094
O	9.547133	0.871593	-0.871593
O	9.973289	-1.297491	-3.040687
O	7.378203	1.297491	-3.040687
O	11.716072	-1.297491	-1.297491
O	12.142228	3.466585	-0.871593
O	12.142228	0.871593	-3.466585
O	9.547133	3.466585	-3.466585
O	14.311161	1.297496	-1.297491
Tl	7.591276	-1.084547	-3.253641
Tl	14.098085	-1.084547	-1.084547
Tl	9.760216	1.084547	-3.253641
Tl	11.929155	1.084547	-1.084547
B	0.000000	-4.338183	-4.338183
B	2.168940	-6.507277	-6.507277
O	0.871387	-3.466590	-5.209776
O	1.297543	-5.635674	-7.378870
O	-1.297543	-3.040692	-7.378870
O	3.040327	-5.635674	-5.635674
O	3.466482	-0.871597	-5.209776
O	3.466483	-3.466590	-7.804768
O	0.871387	-0.871597	-7.804768
O	5.635416	-3.040687	-5.635674
Tl	-1.084470	-5.422730	-7.591824
Tl	5.422339	-5.422730	-5.422730
Tl	1.084470	-3.253636	-7.591824
Tl	3.253410	-3.253636	-5.422730
B	4.337873	0.000000	-4.338183
B	6.506813	-2.169094	-6.507277
O	5.209260	0.871593	-5.209776
O	5.635416	-1.297491	-7.378870
O	3.040330	1.297491	-7.378870
O	7.378199	-1.297491	-5.635674
O	7.804355	3.466585	-5.209776
O	7.804355	0.871593	-7.804768
O	5.209260	3.466585	-7.804768
O	9.973289	1.297496	-5.635674
Tl	3.253403	-1.084547	-7.591824
Tl	9.760212	-1.084547	-5.422730
Tl	5.422343	1.084547	-7.591824
Tl	7.591283	1.084547	-5.422730
