40

O	2.071783	2.071783	0.000000
O	0.000000	2.071783	2.071783
O	2.071783	0.000000	2.071783
Th	0.000000	0.000000	0.000000
Yb	2.071783	2.071783	2.071783
O	2.071783	2.071783	4.143566
O	0.000000	2.071783	6.215349
O	2.071783	0.000000	6.215349
Th	0.000000	0.000000	4.143566
Yb	2.071783	2.071783	6.215349
O	2.071783	6.215349	0.000000
O	0.000000	6.215349	2.071783
O	2.071783	4.143566	2.071783
Th	0.000000	4.143566	0.000000
Yb	2.071783	6.215349	2.071783
O	2.071783	6.215349	4.143566
O	0.000000	6.215349	6.215349
O	2.071783	4.143566	6.215349
Th	0.000000	4.143566	4.143566
Yb	2.071783	6.215349	6.215349
O	6.215349	2.071783	0.000000
O	4.143566	2.071783	2.071783
O	6.215349	0.000000	2.071783
Th	4.143566	0.000000	0.000000
Yb	6.215349	2.071783	2.071783
O	6.215349	2.071783	4.143566
O	4.143566	2.071783	6.215349
O	6.215349	0.000000	6.215349
Th	4.143566	0.000000	4.143566
Yb	6.215349	2.071783	6.215349
O	6.215349	6.215349	0.000000
O	4.143566	6.215349	2.071783
O	6.215349	4.143566	2.071783
Th	4.143566	4.143566	0.000000
Yb	6.215349	6.215349	2.071783
O	6.215349	6.215349	4.143566
O	4.143566	6.215349	6.215349
O	6.215349	4.143566	6.215349
Th	4.143566	4.143566	4.143566
Yb	6.215349	6.215349	6.215349
