40

O	2.259123	2.259123	0.000000
O	2.259123	0.000000	2.259123
O	0.000000	2.259123	2.259123
Pr	2.259123	2.259123	2.259123
Tm	0.000000	0.000000	0.000000
O	2.259123	2.259123	4.518247
O	2.259123	0.000000	6.777370
O	0.000000	2.259123	6.777370
Pr	2.259123	2.259123	6.777370
Tm	0.000000	0.000000	4.518247
O	2.259123	6.777370	0.000000
O	2.259123	4.518247	2.259123
O	0.000000	6.777370	2.259123
Pr	2.259123	6.777370	2.259123
Tm	0.000000	4.518247	0.000000
O	2.259123	6.777370	4.518247
O	2.259123	4.518247	6.777370
O	0.000000	6.777370	6.777370
Pr	2.259123	6.777370	6.777370
Tm	0.000000	4.518247	4.518247
O	6.777370	2.259123	0.000000
O	6.777370	0.000000	2.259123
O	4.518247	2.259123	2.259123
Pr	6.777370	2.259123	2.259123
Tm	4.518247	0.000000	0.000000
O	6.777370	2.259123	4.518247
O	6.777370	0.000000	6.777370
O	4.518247	2.259123	6.777370
Pr	6.777370	2.259123	6.777370
Tm	4.518247	0.000000	4.518247
O	6.777370	6.777370	0.000000
O	6.777370	4.518247	2.259123
O	4.518247	6.777370	2.259123
Pr	6.777370	6.777370	2.259123
Tm	4.518247	4.518247	0.000000
O	6.777370	6.777370	4.518247
O	6.777370	4.518247	6.777370
O	4.518247	6.777370	6.777370
Pr	6.777370	6.777370	6.777370
Tm	4.518247	4.518247	4.518247
