112

Hg	0.000000	0.000000	0.000000
Hg	2.273695	-2.274155	-2.274155
O	-0.975554	0.975319	-3.572982
O	3.571827	-0.975319	-0.975319
O	0.975554	-0.975319	-3.572982
O	1.298131	1.298836	-1.298836
O	5.522944	0.975319	-0.975319
O	1.298131	3.249475	-3.249475
O	3.249249	3.249475	-1.298836
O	3.249249	1.298836	-3.249475
Sc	-1.136848	-1.137073	-3.411228
Sc	1.136848	1.137073	-3.411228
Sc	3.410543	1.137073	-1.137073
Sc	5.684238	-1.137073	-1.137073
Hg	4.547388	4.548310	0.000000
Hg	6.821083	2.274154	-2.274155
O	3.571834	5.523629	-3.572982
O	8.119214	3.572991	-0.975319
O	5.522942	3.572991	-3.572982
O	5.845519	5.847146	-1.298836
O	10.070332	5.523629	-0.975319
O	5.845519	7.797785	-3.249475
O	7.796637	7.797785	-1.298836
O	7.796637	5.847146	-3.249475
Sc	3.410540	3.411237	-3.411228
Sc	5.684235	5.685383	-3.411228
Sc	7.957930	5.685383	-1.137073
Sc	10.231626	3.411237	-1.137073
Hg	-4.547388	0.000000	-4.548310
Hg	-2.273692	-2.274155	-6.822465
O	-5.522941	0.975319	-8.121292
O	-0.975561	-0.975319	-5.523629
O	-3.571834	-0.975319	-8.121292
O	-3.249256	1.298836	-5.847146
O	0.975557	0.975319	-5.523629
O	-3.249256	3.249475	-7.797785
O	-1.298139	3.249475	-5.847146
O	-1.298138	1.298836	-7.797785
Sc	-5.684235	-1.137073	-7.959538
Sc	-3.410540	1.137073	-7.959538
Sc	-1.136845	1.137073	-5.685383
Sc	1.136850	-1.137073	-5.685383
Hg	0.000000	4.548310	-4.548310
Hg	2.273695	2.274154	-6.822465
O	-0.975554	5.523629	-8.121292
O	3.571827	3.572991	-5.523629
O	0.975554	3.572991	-8.121292
O	1.298131	5.847146	-5.847146
O	5.522944	5.523629	-5.523629
O	1.298131	7.797785	-7.797785
O	3.249249	7.797785	-5.847146
O	3.249249	5.847146	-7.797785
Sc	-1.136848	3.411237	-7.959538
Sc	1.136848	5.685383	-7.959538
Sc	3.410543	5.685383	-5.685383
Sc	5.684238	3.411237	-5.685383
Hg	4.547388	-4.548310	0.000000
Hg	6.821083	-6.822465	-2.274155
O	3.571834	-3.572991	-3.572982
O	8.119214	-5.523629	-0.975319
O	5.522942	-5.523629	-3.572982
O	5.845519	-3.249474	-1.298836
O	10.070332	-3.572991	-0.975319
O	5.845519	-1.298835	-3.249475
O	7.796637	-1.298835	-1.298836
O	7.796637	-3.249474	-3.249475
Sc	3.410540	-5.685383	-3.411228
Sc	5.684235	-3.411237	-3.411228
Sc	7.957930	-3.411237	-1.137073
Sc	10.231626	-5.685383	-1.137073
Hg	9.094775	0.000000	0.000000
Hg	11.368470	-2.274155	-2.274155
O	8.119221	0.975319	-3.572982
O	12.666602	-0.975319	-0.975319
O	10.070329	-0.975319	-3.572982
O	10.392907	1.298836	-1.298836
O	14.617720	0.975319	-0.975319
O	10.392907	3.249475	-3.249475
O	12.344024	3.249475	-1.298836
O	12.344024	1.298836	-3.249475
Sc	7.957928	-1.137073	-3.411228
Sc	10.231623	1.137073	-3.411228
Sc	12.505318	1.137073	-1.137073
Sc	14.779013	-1.137073	-1.137073
Hg	0.000000	-4.548310	-4.548310
Hg	2.273695	-6.822465	-6.822465
O	-0.975554	-3.572991	-8.121292
O	3.571827	-5.523629	-5.523629
O	0.975554	-5.523629	-8.121292
O	1.298131	-3.249474	-5.847146
O	5.522944	-3.572991	-5.523629
O	1.298131	-1.298835	-7.797785
O	3.249249	-1.298835	-5.847146
O	3.249249	-3.249474	-7.797785
Sc	-1.136848	-5.685383	-7.959538
Sc	1.136848	-3.411237	-7.959538
Sc	3.410543	-3.411237	-5.685383
Sc	5.684238	-5.685383	-5.685383
Hg	4.547388	0.000000	-4.548310
Hg	6.821083	-2.274155	-6.822465
O	3.571834	0.975319	-8.121292
O	8.119214	-0.975319	-5.523629
O	5.522942	-0.975319	-8.121292
O	5.845519	1.298836	-5.847146
O	10.070332	0.975319	-5.523629
O	5.845519	3.249475	-7.797785
O	7.796637	3.249475	-5.847146
O	7.796637	1.298836	-7.797785
Sc	3.410540	-1.137073	-7.959538
Sc	5.684235	1.137073	-7.959538
Sc	7.957930	1.137073	-5.685383
Sc	10.231626	-1.137073	-5.685383
