40

O	1.986260	1.986260	0.000000
O	0.000000	1.986260	1.986260
O	1.986260	0.000000	1.986260
Pd	1.986260	1.986260	1.986260
Sm_3	0.000000	0.000000	0.000000
O	1.986260	1.986260	3.972515
O	0.000000	1.986260	5.958775
O	1.986260	0.000000	5.958775
Pd	1.986260	1.986260	5.958775
Sm_3	0.000000	0.000000	3.972515
O	1.986260	5.958775	0.000000
O	0.000000	5.958775	1.986260
O	1.986260	3.972515	1.986260
Pd	1.986260	5.958775	1.986260
Sm_3	0.000000	3.972515	0.000000
O	1.986260	5.958775	3.972515
O	0.000000	5.958775	5.958775
O	1.986260	3.972515	5.958775
Pd	1.986260	5.958775	5.958775
Sm_3	0.000000	3.972515	3.972515
O	5.958775	1.986260	0.000000
O	3.972515	1.986260	1.986260
O	5.958775	0.000000	1.986260
Pd	5.958775	1.986260	1.986260
Sm_3	3.972515	0.000000	0.000000
O	5.958775	1.986260	3.972515
O	3.972515	1.986260	5.958775
O	5.958775	0.000000	5.958775
Pd	5.958775	1.986260	5.958775
Sm_3	3.972515	0.000000	3.972515
O	5.958775	5.958775	0.000000
O	3.972515	5.958775	1.986260
O	5.958775	3.972515	1.986260
Pd	5.958775	5.958775	1.986260
Sm_3	3.972515	3.972515	0.000000
O	5.958775	5.958775	3.972515
O	3.972515	5.958775	5.958775
O	5.958775	3.972515	5.958775
Pd	5.958775	5.958775	5.958775
Sm_3	3.972515	3.972515	3.972515
