40

Co	1.876783	1.876783	1.876783
Nd	0.000000	0.000000	0.000000
O	1.876783	1.876783	0.000000
O	0.000000	1.876783	1.876783
O	1.876783	0.000000	1.876783
Co	1.876783	1.876783	5.630348
Nd	0.000000	0.000000	3.753565
O	1.876783	1.876783	3.753565
O	0.000000	1.876783	5.630348
O	1.876783	0.000000	5.630348
Co	1.876783	5.630348	1.876783
Nd	0.000000	3.753565	0.000000
O	1.876783	5.630348	0.000000
O	0.000000	5.630348	1.876783
O	1.876783	3.753565	1.876783
Co	1.876783	5.630348	5.630348
Nd	0.000000	3.753565	3.753565
O	1.876783	5.630348	3.753565
O	0.000000	5.630348	5.630348
O	1.876783	3.753565	5.630348
Co	5.630348	1.876783	1.876783
Nd	3.753565	0.000000	0.000000
O	5.630348	1.876783	0.000000
O	3.753565	1.876783	1.876783
O	5.630348	0.000000	1.876783
Co	5.630348	1.876783	5.630348
Nd	3.753565	0.000000	3.753565
O	5.630348	1.876783	3.753565
O	3.753565	1.876783	5.630348
O	5.630348	0.000000	5.630348
Co	5.630348	5.630348	1.876783
Nd	3.753565	3.753565	0.000000
O	5.630348	5.630348	0.000000
O	3.753565	5.630348	1.876783
O	5.630348	3.753565	1.876783
Co	5.630348	5.630348	5.630348
Nd	3.753565	3.753565	3.753565
O	5.630348	5.630348	3.753565
O	3.753565	5.630348	5.630348
O	5.630348	3.753565	5.630348
