40

Al	1.845163	1.845163	1.845163
O	1.845163	1.845163	0.000000
O	1.845163	0.000000	1.845163
O	0.000000	1.845163	1.845163
Tc	0.000000	0.000000	0.000000
Al	1.845163	1.845163	5.535488
O	1.845163	1.845163	3.690325
O	1.845163	0.000000	5.535488
O	0.000000	1.845163	5.535488
Tc	0.000000	0.000000	3.690325
Al	1.845163	5.535488	1.845163
O	1.845163	5.535488	0.000000
O	1.845163	3.690325	1.845163
O	0.000000	5.535488	1.845163
Tc	0.000000	3.690325	0.000000
Al	1.845163	5.535488	5.535488
O	1.845163	5.535488	3.690325
O	1.845163	3.690325	5.535488
O	0.000000	5.535488	5.535488
Tc	0.000000	3.690325	3.690325
Al	5.535488	1.845163	1.845163
O	5.535488	1.845163	0.000000
O	5.535488	0.000000	1.845163
O	3.690325	1.845163	1.845163
Tc	3.690325	0.000000	0.000000
Al	5.535488	1.845163	5.535488
O	5.535488	1.845163	3.690325
O	5.535488	0.000000	5.535488
O	3.690325	1.845163	5.535488
Tc	3.690325	0.000000	3.690325
Al	5.535488	5.535488	1.845163
O	5.535488	5.535488	0.000000
O	5.535488	3.690325	1.845163
O	3.690325	5.535488	1.845163
Tc	3.690325	3.690325	0.000000
Al	5.535488	5.535488	5.535488
O	5.535488	5.535488	3.690325
O	5.535488	3.690325	5.535488
O	3.690325	5.535488	5.535488
Tc	3.690325	3.690325	3.690325
