40

Al	0.000000	0.000000	0.000000
O	0.000000	1.984431	1.984431
O	1.984431	0.000000	1.984431
O	1.984431	1.984431	0.000000
Tc	1.984431	1.984431	1.984431
Al	0.000000	0.000000	3.968863
O	0.000000	1.984431	5.953294
O	1.984431	0.000000	5.953294
O	1.984431	1.984431	3.968863
Tc	1.984431	1.984431	5.953294
Al	0.000000	3.968863	0.000000
O	0.000000	5.953294	1.984431
O	1.984431	3.968863	1.984431
O	1.984431	5.953294	0.000000
Tc	1.984431	5.953294	1.984431
Al	0.000000	3.968863	3.968863
O	0.000000	5.953294	5.953294
O	1.984431	3.968863	5.953294
O	1.984431	5.953294	3.968863
Tc	1.984431	5.953294	5.953294
Al	3.968863	0.000000	0.000000
O	3.968863	1.984431	1.984431
O	5.953294	0.000000	1.984431
O	5.953294	1.984431	0.000000
Tc	5.953294	1.984431	1.984431
Al	3.968863	0.000000	3.968863
O	3.968863	1.984431	5.953294
O	5.953294	0.000000	5.953294
O	5.953294	1.984431	3.968863
Tc	5.953294	1.984431	5.953294
Al	3.968863	3.968863	0.000000
O	3.968863	5.953294	1.984431
O	5.953294	3.968863	1.984431
O	5.953294	5.953294	0.000000
Tc	5.953294	5.953294	1.984431
Al	3.968863	3.968863	3.968863
O	3.968863	5.953294	5.953294
O	5.953294	3.968863	5.953294
O	5.953294	5.953294	3.968863
Tc	5.953294	5.953294	5.953294
