40

Nb	0.000000	0.000000	0.000000
O	1.907435	1.907435	0.000000
O	1.907435	0.000000	1.907435
O	0.000000	1.907435	1.907435
Zn	1.907435	1.907435	1.907435
Nb	0.000000	0.000000	3.814870
O	1.907435	1.907435	3.814870
O	1.907435	0.000000	5.722304
O	0.000000	1.907435	5.722304
Zn	1.907435	1.907435	5.722304
Nb	0.000000	3.814870	0.000000
O	1.907435	5.722304	0.000000
O	1.907435	3.814870	1.907435
O	0.000000	5.722304	1.907435
Zn	1.907435	5.722304	1.907435
Nb	0.000000	3.814870	3.814870
O	1.907435	5.722304	3.814870
O	1.907435	3.814870	5.722304
O	0.000000	5.722304	5.722304
Zn	1.907435	5.722304	5.722304
Nb	3.814870	0.000000	0.000000
O	5.722304	1.907435	0.000000
O	5.722304	0.000000	1.907435
O	3.814870	1.907435	1.907435
Zn	5.722304	1.907435	1.907435
Nb	3.814870	0.000000	3.814870
O	5.722304	1.907435	3.814870
O	5.722304	0.000000	5.722304
O	3.814870	1.907435	5.722304
Zn	5.722304	1.907435	5.722304
Nb	3.814870	3.814870	0.000000
O	5.722304	5.722304	0.000000
O	5.722304	3.814870	1.907435
O	3.814870	5.722304	1.907435
Zn	5.722304	5.722304	1.907435
Nb	3.814870	3.814870	3.814870
O	5.722304	5.722304	3.814870
O	5.722304	3.814870	5.722304
O	3.814870	5.722304	5.722304
Zn	5.722304	5.722304	5.722304
