40

Nb	1.992540	1.992540	1.992540
O	1.992540	0.000000	1.992540
O	0.000000	1.992540	1.992540
O	1.992540	1.992540	0.000000
Zn	0.000000	0.000000	0.000000
Nb	1.992540	1.992540	5.977610
O	1.992540	0.000000	5.977610
O	0.000000	1.992540	5.977610
O	1.992540	1.992540	3.985070
Zn	0.000000	0.000000	3.985070
Nb	1.992540	5.977610	1.992540
O	1.992540	3.985070	1.992540
O	0.000000	5.977610	1.992540
O	1.992540	5.977610	0.000000
Zn	0.000000	3.985070	0.000000
Nb	1.992540	5.977610	5.977610
O	1.992540	3.985070	5.977610
O	0.000000	5.977610	5.977610
O	1.992540	5.977610	3.985070
Zn	0.000000	3.985070	3.985070
Nb	5.977610	1.992540	1.992540
O	5.977610	0.000000	1.992540
O	3.985070	1.992540	1.992540
O	5.977610	1.992540	0.000000
Zn	3.985070	0.000000	0.000000
Nb	5.977610	1.992540	5.977610
O	5.977610	0.000000	5.977610
O	3.985070	1.992540	5.977610
O	5.977610	1.992540	3.985070
Zn	3.985070	0.000000	3.985070
Nb	5.977610	5.977610	1.992540
O	5.977610	3.985070	1.992540
O	3.985070	5.977610	1.992540
O	5.977610	5.977610	0.000000
Zn	3.985070	3.985070	0.000000
Nb	5.977610	5.977610	5.977610
O	5.977610	3.985070	5.977610
O	3.985070	5.977610	5.977610
O	5.977610	5.977610	3.985070
Zn	3.985070	3.985070	3.985070
