40

O	0.000000	1.939311	1.939311
O	1.939311	0.000000	1.939311
O	1.939311	1.939311	0.000000
Os	1.939311	1.939311	1.939311
Pd	0.000000	0.000000	0.000000
O	0.000000	1.939311	5.817934
O	1.939311	0.000000	5.817934
O	1.939311	1.939311	3.878623
Os	1.939311	1.939311	5.817934
Pd	0.000000	0.000000	3.878623
O	0.000000	5.817934	1.939311
O	1.939311	3.878623	1.939311
O	1.939311	5.817934	0.000000
Os	1.939311	5.817934	1.939311
Pd	0.000000	3.878623	0.000000
O	0.000000	5.817934	5.817934
O	1.939311	3.878623	5.817934
O	1.939311	5.817934	3.878623
Os	1.939311	5.817934	5.817934
Pd	0.000000	3.878623	3.878623
O	3.878623	1.939311	1.939311
O	5.817934	0.000000	1.939311
O	5.817934	1.939311	0.000000
Os	5.817934	1.939311	1.939311
Pd	3.878623	0.000000	0.000000
O	3.878623	1.939311	5.817934
O	5.817934	0.000000	5.817934
O	5.817934	1.939311	3.878623
Os	5.817934	1.939311	5.817934
Pd	3.878623	0.000000	3.878623
O	3.878623	5.817934	1.939311
O	5.817934	3.878623	1.939311
O	5.817934	5.817934	0.000000
Os	5.817934	5.817934	1.939311
Pd	3.878623	3.878623	0.000000
O	3.878623	5.817934	5.817934
O	5.817934	3.878623	5.817934
O	5.817934	5.817934	3.878623
Os	5.817934	5.817934	5.817934
Pd	3.878623	3.878623	3.878623
