40

As	1.979080	1.979080	1.979080
Nb	0.000000	0.000000	0.000000
O	0.000000	1.979080	1.979080
O	1.979080	0.000000	1.979080
O	1.979080	1.979080	0.000000
As	1.979080	1.979080	5.937241
Nb	0.000000	0.000000	3.958160
O	0.000000	1.979080	5.937241
O	1.979080	0.000000	5.937241
O	1.979080	1.979080	3.958160
As	1.979080	5.937241	1.979080
Nb	0.000000	3.958160	0.000000
O	0.000000	5.937241	1.979080
O	1.979080	3.958160	1.979080
O	1.979080	5.937241	0.000000
As	1.979080	5.937241	5.937241
Nb	0.000000	3.958160	3.958160
O	0.000000	5.937241	5.937241
O	1.979080	3.958160	5.937241
O	1.979080	5.937241	3.958160
As	5.937241	1.979080	1.979080
Nb	3.958160	0.000000	0.000000
O	3.958160	1.979080	1.979080
O	5.937241	0.000000	1.979080
O	5.937241	1.979080	0.000000
As	5.937241	1.979080	5.937241
Nb	3.958160	0.000000	3.958160
O	3.958160	1.979080	5.937241
O	5.937241	0.000000	5.937241
O	5.937241	1.979080	3.958160
As	5.937241	5.937241	1.979080
Nb	3.958160	3.958160	0.000000
O	3.958160	5.937241	1.979080
O	5.937241	3.958160	1.979080
O	5.937241	5.937241	0.000000
As	5.937241	5.937241	5.937241
Nb	3.958160	3.958160	3.958160
O	3.958160	5.937241	5.937241
O	5.937241	3.958160	5.937241
O	5.937241	5.937241	3.958160
