40

Cd	2.077420	2.077420	2.077420
O	2.077420	2.077420	0.000000
O	2.077420	0.000000	2.077420
O	0.000000	2.077420	2.077420
Sr	0.000000	0.000000	0.000000
Cd	2.077420	2.077420	6.232268
O	2.077420	2.077420	4.154848
O	2.077420	0.000000	6.232268
O	0.000000	2.077420	6.232268
Sr	0.000000	0.000000	4.154848
Cd	2.077420	6.232268	2.077420
O	2.077420	6.232268	0.000000
O	2.077420	4.154848	2.077420
O	0.000000	6.232268	2.077420
Sr	0.000000	4.154848	0.000000
Cd	2.077420	6.232268	6.232268
O	2.077420	6.232268	4.154848
O	2.077420	4.154848	6.232268
O	0.000000	6.232268	6.232268
Sr	0.000000	4.154848	4.154848
Cd	6.232268	2.077420	2.077420
O	6.232268	2.077420	0.000000
O	6.232268	0.000000	2.077420
O	4.154848	2.077420	2.077420
Sr	4.154848	0.000000	0.000000
Cd	6.232268	2.077420	6.232268
O	6.232268	2.077420	4.154848
O	6.232268	0.000000	6.232268
O	4.154848	2.077420	6.232268
Sr	4.154848	0.000000	4.154848
Cd	6.232268	6.232268	2.077420
O	6.232268	6.232268	0.000000
O	6.232268	4.154848	2.077420
O	4.154848	6.232268	2.077420
Sr	4.154848	4.154848	0.000000
Cd	6.232268	6.232268	6.232268
O	6.232268	6.232268	4.154848
O	6.232268	4.154848	6.232268
O	4.154848	6.232268	6.232268
Sr	4.154848	4.154848	4.154848
