112

Ag	0.000000	0.000000	0.000000
Ag	1.947061	-1.946446	-1.946446
B	-0.973530	-0.973223	-2.919670
B	2.920591	0.973223	-0.973223
B	4.867652	-0.973223	-0.973223
B	0.973530	0.973223	-2.919670
O	3.113510	-0.779457	-0.779457
O	-0.780612	0.779457	-3.113436
O	0.780612	-0.779457	-3.113436
O	1.166449	1.166990	-1.166990
O	4.674734	0.779457	-0.779457
O	1.166449	2.725903	-2.725903
O	2.727673	2.725903	-1.166990
O	2.727673	1.166990	-2.725903
Ag	3.894122	3.892893	0.000000
Ag	5.841183	1.946446	-1.946446
B	2.920591	2.919670	-2.919670
B	6.814713	4.866116	-0.973223
B	8.761774	2.919670	-0.973223
B	4.867652	4.866116	-2.919670
O	7.007631	3.113436	-0.779457
O	3.113510	4.672350	-3.113436
O	4.674734	3.113436	-3.113436
O	5.060570	5.059882	-1.166990
O	8.568856	4.672350	-0.779457
O	5.060571	6.618796	-2.725903
O	6.621795	6.618796	-1.166990
O	6.621795	5.059882	-2.725903
Ag	-3.894122	0.000000	-3.892893
Ag	-1.947061	-1.946446	-5.839339
B	-4.867652	-0.973223	-6.812563
B	-0.973530	0.973223	-4.866116
B	0.973530	-0.973223	-4.866116
B	-2.920591	0.973223	-6.812563
O	-0.780612	-0.779457	-4.672350
O	-4.674734	0.779457	-7.006329
O	-3.113510	-0.779457	-7.006329
O	-2.727673	1.166990	-5.059883
O	0.780612	0.779457	-4.672350
O	-2.727673	2.725903	-6.618796
O	-1.166449	2.725903	-5.059883
O	-1.166449	1.166990	-6.618796
Ag	0.000000	3.892893	-3.892893
Ag	1.947061	1.946446	-5.839339
B	-0.973530	2.919670	-6.812563
B	2.920591	4.866116	-4.866116
B	4.867652	2.919670	-4.866116
B	0.973530	4.866116	-6.812563
O	3.113510	3.113436	-4.672350
O	-0.780612	4.672350	-7.006329
O	0.780612	3.113436	-7.006329
O	1.166449	5.059882	-5.059883
O	4.674734	4.672350	-4.672350
O	1.166449	6.618796	-6.618796
O	2.727673	6.618796	-5.059883
O	2.727673	5.059882	-6.618796
Ag	3.894122	-3.892893	0.000000
Ag	5.841183	-5.839339	-1.946446
B	2.920591	-4.866116	-2.919670
B	6.814713	-2.919670	-0.973223
B	8.761774	-4.866116	-0.973223
B	4.867652	-2.919670	-2.919670
O	7.007631	-4.672350	-0.779457
O	3.113510	-3.113436	-3.113436
O	4.674734	-4.672350	-3.113436
O	5.060570	-2.725903	-1.166990
O	8.568856	-3.113436	-0.779457
O	5.060571	-1.166990	-2.725903
O	6.621795	-1.166990	-1.166990
O	6.621795	-2.725903	-2.725903
Ag	7.788244	0.000000	0.000000
Ag	9.735305	-1.946446	-1.946446
B	6.814713	-0.973223	-2.919670
B	10.708835	0.973223	-0.973223
B	12.655896	-0.973223	-0.973223
B	8.761774	0.973223	-2.919670
O	10.901753	-0.779457	-0.779457
O	7.007631	0.779457	-3.113436
O	8.568856	-0.779457	-3.113436
O	8.954692	1.166990	-1.166990
O	12.462978	0.779457	-0.779457
O	8.954692	2.725903	-2.725903
O	10.515917	2.725903	-1.166990
O	10.515917	1.166990	-2.725903
Ag	0.000000	-3.892893	-3.892893
Ag	1.947061	-5.839339	-5.839339
B	-0.973530	-4.866116	-6.812563
B	2.920591	-2.919670	-4.866116
B	4.867652	-4.866116	-4.866116
B	0.973530	-2.919670	-6.812563
O	3.113510	-4.672350	-4.672350
O	-0.780612	-3.113436	-7.006329
O	0.780612	-4.672350	-7.006329
O	1.166449	-2.725903	-5.059883
O	4.674734	-3.113436	-4.672350
O	1.166449	-1.166990	-6.618796
O	2.727673	-1.166990	-5.059883
O	2.727673	-2.725903	-6.618796
Ag	3.894122	0.000000	-3.892893
Ag	5.841183	-1.946446	-5.839339
B	2.920591	-0.973223	-6.812563
B	6.814713	0.973223	-4.866116
B	8.761774	-0.973223	-4.866116
B	4.867652	0.973223	-6.812563
O	7.007631	-0.779457	-4.672350
O	3.113510	0.779457	-7.006329
O	4.674734	-0.779457	-7.006329
O	5.060570	1.166990	-5.059883
O	8.568856	0.779457	-4.672350
O	5.060571	2.725903	-6.618796
O	6.621795	2.725903	-5.059883
O	6.621795	1.166990	-6.618796
