112

Au	0.000000	0.000000	0.000000
Au	2.389851	-2.389165	-2.389165
Ho	-1.194925	-1.194583	-3.583748
Ho	3.584776	1.194583	-1.194583
Ho	5.974627	-1.194583	-1.194583
Ho	1.194925	1.194583	-3.583748
O	3.723778	-1.054548	-1.054548
O	-1.055923	1.054548	-3.723782
O	1.055923	-1.054548	-3.723782
O	1.333928	1.334617	-1.334617
O	5.835625	1.054548	-1.054548
O	1.333928	3.443713	-3.443713
O	3.445774	3.443713	-1.334617
O	3.445774	1.334617	-3.443713
Au	4.779702	4.778330	0.000000
Au	7.169552	2.389165	-2.389165
Ho	3.584776	3.583748	-3.583748
Ho	8.364478	5.972913	-1.194583
Ho	10.754329	3.583748	-1.194583
Ho	5.974627	5.972913	-3.583748
O	8.503480	3.723782	-1.054548
O	3.723778	5.832878	-3.723782
O	5.835625	3.723782	-3.723782
O	6.113629	6.112947	-1.334617
O	10.615326	5.832878	-1.054548
O	6.113629	8.222043	-3.443713
O	8.225476	8.222043	-1.334617
O	8.225476	6.112947	-3.443713
Au	-4.779702	0.000000	-4.778330
Au	-2.389851	-2.389165	-7.167495
Ho	-5.974627	-1.194583	-8.362078
Ho	-1.194925	1.194583	-5.972913
Ho	1.194925	-1.194583	-5.972913
Ho	-3.584776	1.194583	-8.362078
O	-1.055923	-1.054548	-5.832878
O	-5.835625	1.054548	-8.502112
O	-3.723778	-1.054548	-8.502112
O	-3.445774	1.334617	-6.112947
O	1.055923	1.054548	-5.832878
O	-3.445774	3.443713	-8.222043
O	-1.333928	3.443713	-6.112947
O	-1.333928	1.334617	-8.222043
Au	0.000000	4.778330	-4.778330
Au	2.389851	2.389165	-7.167495
Ho	-1.194925	3.583748	-8.362078
Ho	3.584776	5.972913	-5.972913
Ho	5.974627	3.583748	-5.972913
Ho	1.194925	5.972913	-8.362078
O	3.723778	3.723782	-5.832878
O	-1.055923	5.832878	-8.502112
O	1.055923	3.723782	-8.502112
O	1.333928	6.112947	-6.112947
O	5.835625	5.832878	-5.832878
O	1.333928	8.222043	-8.222043
O	3.445774	8.222043	-6.112947
O	3.445774	6.112947	-8.222043
Au	4.779702	-4.778330	0.000000
Au	7.169552	-7.167495	-2.389165
Ho	3.584776	-5.972913	-3.583748
Ho	8.364478	-3.583748	-1.194583
Ho	10.754329	-5.972913	-1.194583
Ho	5.974627	-3.583748	-3.583748
O	8.503480	-5.832878	-1.054548
O	3.723778	-3.723782	-3.723782
O	5.835625	-5.832878	-3.723782
O	6.113629	-3.443713	-1.334617
O	10.615326	-3.723782	-1.054548
O	6.113629	-1.334617	-3.443713
O	8.225476	-1.334617	-1.334617
O	8.225476	-3.443713	-3.443713
Au	9.559403	0.000000	0.000000
Au	11.949254	-2.389165	-2.389165
Ho	8.364478	-1.194583	-3.583748
Ho	13.144179	1.194583	-1.194583
Ho	15.534030	-1.194583	-1.194583
Ho	10.754329	1.194583	-3.583748
O	13.283182	-1.054548	-1.054548
O	8.503480	1.054548	-3.723782
O	10.615326	-1.054548	-3.723782
O	10.893331	1.334617	-1.334617
O	15.395028	1.054548	-1.054548
O	10.893331	3.443713	-3.443713
O	13.005177	3.443713	-1.334617
O	13.005177	1.334617	-3.443713
Au	0.000000	-4.778330	-4.778330
Au	2.389851	-7.167495	-7.167495
Ho	-1.194925	-5.972913	-8.362078
Ho	3.584776	-3.583748	-5.972913
Ho	5.974627	-5.972913	-5.972913
Ho	1.194925	-3.583748	-8.362078
O	3.723778	-5.832878	-5.832878
O	-1.055923	-3.723782	-8.502112
O	1.055923	-5.832878	-8.502112
O	1.333928	-3.443713	-6.112947
O	5.835625	-3.723782	-5.832878
O	1.333928	-1.334617	-8.222043
O	3.445774	-1.334617	-6.112947
O	3.445774	-3.443713	-8.222043
Au	4.779702	0.000000	-4.778330
Au	7.169552	-2.389165	-7.167495
Ho	3.584776	-1.194583	-8.362078
Ho	8.364478	1.194583	-5.972913
Ho	10.754329	-1.194583	-5.972913
Ho	5.974627	1.194583	-8.362078
O	8.503480	-1.054548	-5.832878
O	3.723778	1.054548	-8.502112
O	5.835625	-1.054548	-8.502112
O	6.113629	1.334617	-6.112947
O	10.615326	1.054548	-5.832878
O	6.113629	3.443713	-8.222043
O	8.225476	3.443713	-6.112947
O	8.225476	1.334617	-8.222043
