112

B	0.000000	0.000000	0.000000
B	1.962912	-1.962750	-1.962750
O	0.873531	0.873623	-0.873623
O	-1.089381	1.089127	-2.836363
O	2.836453	-1.089127	-1.089127
O	1.089381	-1.089126	-2.836363
O	0.873531	3.051866	-3.051866
O	3.052294	3.051866	-0.873623
O	3.052294	0.873623	-3.051866
O	5.015216	1.089126	-1.089127
Zn	-0.981456	-0.981375	-2.944115
Zn	0.981456	0.981375	-2.944115
Zn	4.907291	-0.981375	-0.981375
Zn	2.944379	0.981375	-0.981375
B	3.925833	3.925493	0.000000
B	5.888746	1.962743	-1.962750
O	4.799364	4.799116	-0.873623
O	2.836452	5.014619	-2.836363
O	6.762287	2.836366	-1.089127
O	5.015215	2.836366	-2.836363
O	4.799364	6.977359	-3.051866
O	6.978127	6.977359	-0.873623
O	6.978127	4.799116	-3.051866
O	8.941050	5.014619	-1.089127
Zn	2.944377	2.944118	-2.944115
Zn	4.907290	4.906867	-2.944115
Zn	8.833124	2.944118	-0.981375
Zn	6.870212	4.906867	-0.981375
B	-3.925833	0.000000	-3.925493
B	-1.962921	-1.962750	-5.888242
O	-3.052302	0.873623	-4.799116
O	-5.015215	1.089127	-6.761856
O	-1.089380	-1.089127	-5.014619
O	-2.836452	-1.089126	-6.761856
O	-3.052302	3.051866	-6.977359
O	-0.873539	3.051866	-4.799116
O	-0.873539	0.873623	-6.977359
O	1.089383	1.089126	-5.014619
Zn	-4.907289	-0.981375	-6.869607
Zn	-2.944377	0.981375	-6.869607
Zn	0.981458	-0.981375	-4.906867
Zn	-0.981455	0.981375	-4.906867
B	0.000000	3.925493	-3.925493
B	1.962912	1.962743	-5.888242
O	0.873531	4.799116	-4.799116
O	-1.089381	5.014619	-6.761856
O	2.836453	2.836366	-5.014619
O	1.089381	2.836366	-6.761856
O	0.873531	6.977359	-6.977359
O	3.052294	6.977359	-4.799116
O	3.052294	4.799116	-6.977359
O	5.015216	5.014619	-5.014619
Zn	-0.981456	2.944118	-6.869607
Zn	0.981456	4.906867	-6.869607
Zn	4.907291	2.944118	-4.906867
Zn	2.944379	4.906867	-4.906867
B	3.925833	-3.925493	0.000000
B	5.888746	-5.888242	-1.962750
O	4.799364	-3.051869	-0.873623
O	2.836452	-2.836366	-2.836363
O	6.762287	-5.014619	-1.089127
O	5.015215	-5.014619	-2.836363
O	4.799364	-0.873626	-3.051866
O	6.978127	-0.873626	-0.873623
O	6.978127	-3.051869	-3.051866
O	8.941050	-2.836366	-1.089127
Zn	2.944377	-4.906867	-2.944115
Zn	4.907290	-2.944118	-2.944115
Zn	8.833124	-4.906867	-0.981375
Zn	6.870212	-2.944118	-0.981375
B	7.851667	0.000000	0.000000
B	9.814579	-1.962750	-1.962750
O	8.725198	0.873623	-0.873623
O	6.762285	1.089127	-2.836363
O	10.688120	-1.089127	-1.089127
O	8.941048	-1.089126	-2.836363
O	8.725198	3.051866	-3.051866
O	10.903960	3.051866	-0.873623
O	10.903960	0.873623	-3.051866
O	12.866883	1.089126	-1.089127
Zn	6.870210	-0.981375	-2.944115
Zn	8.833123	0.981375	-2.944115
Zn	12.758958	-0.981375	-0.981375
Zn	10.796045	0.981375	-0.981375
B	0.000000	-3.925493	-3.925493
B	1.962912	-5.888242	-5.888242
O	0.873531	-3.051869	-4.799116
O	-1.089381	-2.836366	-6.761856
O	2.836453	-5.014619	-5.014619
O	1.089381	-5.014619	-6.761856
O	0.873531	-0.873626	-6.977359
O	3.052294	-0.873626	-4.799116
O	3.052294	-3.051869	-6.977359
O	5.015216	-2.836366	-5.014619
Zn	-0.981456	-4.906867	-6.869607
Zn	0.981456	-2.944118	-6.869607
Zn	4.907291	-4.906867	-4.906867
Zn	2.944379	-2.944118	-4.906867
B	3.925833	0.000000	-3.925493
B	5.888746	-1.962750	-5.888242
O	4.799364	0.873623	-4.799116
O	2.836452	1.089127	-6.761856
O	6.762287	-1.089127	-5.014619
O	5.015215	-1.089126	-6.761856
O	4.799364	3.051866	-6.977359
O	6.978127	3.051866	-4.799116
O	6.978127	0.873623	-6.977359
O	8.941050	1.089126	-5.014619
Zn	2.944377	-0.981375	-6.869607
Zn	4.907290	0.981375	-6.869607
Zn	8.833124	-0.981375	-4.906867
Zn	6.870212	0.981375	-4.906867
