112

O	3.601962	-1.020043	-1.020043
O	-1.020348	1.020043	-3.603482
O	1.020348	-1.020043	-3.603482
O	1.290807	1.291720	-1.291720
O	5.642658	1.020043	-1.020043
O	1.290807	3.331805	-3.331805
O	3.331503	3.331805	-1.291720
O	3.331503	1.291720	-3.331805
Pm	0.000000	0.000000	0.000000
Pm	2.311155	-2.311763	-2.311763
Sc	-1.155577	-1.155881	-3.467644
Sc	3.466732	1.155881	-1.155881
Sc	5.777887	-1.155881	-1.155881
Sc	1.155577	1.155881	-3.467644
O	8.224272	3.603482	-1.020043
O	3.601962	5.643568	-3.603482
O	5.642658	3.603482	-3.603482
O	5.913117	5.915245	-1.291720
O	10.264968	5.643568	-1.020043
O	5.913117	7.955330	-3.331805
O	7.953813	7.955330	-1.291720
O	7.953813	5.915245	-3.331805
Pm	4.622310	4.623525	0.000000
Pm	6.933465	2.311763	-2.311763
Sc	3.466732	3.467644	-3.467644
Sc	8.089042	5.779406	-1.155881
Sc	10.400197	3.467644	-1.155881
Sc	5.777887	5.779406	-3.467644
O	-1.020348	-1.020043	-5.643568
O	-5.642658	1.020043	-8.227007
O	-3.601962	-1.020043	-8.227007
O	-3.331503	1.291720	-5.915245
O	1.020348	1.020043	-5.643568
O	-3.331503	3.331805	-7.955330
O	-1.290807	3.331805	-5.915245
O	-1.290807	1.291720	-7.955330
Pm	-4.622310	0.000000	-4.623525
Pm	-2.311155	-2.311763	-6.935288
Sc	-5.777887	-1.155881	-8.091169
Sc	-1.155577	1.155881	-5.779406
Sc	1.155577	-1.155881	-5.779406
Sc	-3.466732	1.155881	-8.091169
O	3.601962	3.603482	-5.643568
O	-1.020348	5.643568	-8.227007
O	1.020348	3.603482	-8.227007
O	1.290807	5.915245	-5.915245
O	5.642658	5.643568	-5.643568
O	1.290807	7.955330	-7.955330
O	3.331503	7.955330	-5.915245
O	3.331503	5.915245	-7.955330
Pm	0.000000	4.623525	-4.623525
Pm	2.311155	2.311763	-6.935288
Sc	-1.155577	3.467644	-8.091169
Sc	3.466732	5.779406	-5.779406
Sc	5.777887	3.467644	-5.779406
Sc	1.155577	5.779406	-8.091169
O	8.224272	-5.643568	-1.020043
O	3.601962	-3.603482	-3.603482
O	5.642658	-5.643568	-3.603482
O	5.913117	-3.331805	-1.291720
O	10.264968	-3.603482	-1.020043
O	5.913117	-1.291720	-3.331805
O	7.953813	-1.291720	-1.291720
O	7.953813	-3.331805	-3.331805
Pm	4.622310	-4.623525	0.000000
Pm	6.933465	-6.935288	-2.311763
Sc	3.466732	-5.779406	-3.467644
Sc	8.089042	-3.467644	-1.155881
Sc	10.400197	-5.779406	-1.155881
Sc	5.777887	-3.467644	-3.467644
O	12.846581	-1.020043	-1.020043
O	8.224272	1.020043	-3.603482
O	10.264968	-1.020043	-3.603482
O	10.535426	1.291720	-1.291720
O	14.887278	1.020043	-1.020043
O	10.535426	3.331805	-3.331805
O	12.576123	3.331805	-1.291720
O	12.576123	1.291720	-3.331805
Pm	9.244620	0.000000	0.000000
Pm	11.555775	-2.311763	-2.311763
Sc	8.089042	-1.155881	-3.467644
Sc	12.711352	1.155881	-1.155881
Sc	15.022507	-1.155881	-1.155881
Sc	10.400197	1.155881	-3.467644
O	3.601962	-5.643568	-5.643568
O	-1.020348	-3.603482	-8.227007
O	1.020348	-5.643568	-8.227007
O	1.290807	-3.331805	-5.915245
O	5.642658	-3.603482	-5.643568
O	1.290807	-1.291720	-7.955330
O	3.331503	-1.291720	-5.915245
O	3.331503	-3.331805	-7.955330
Pm	0.000000	-4.623525	-4.623525
Pm	2.311155	-6.935288	-6.935288
Sc	-1.155577	-5.779406	-8.091169
Sc	3.466732	-3.467644	-5.779406
Sc	5.777887	-5.779406	-5.779406
Sc	1.155577	-3.467644	-8.091169
O	8.224272	-1.020043	-5.643568
O	3.601962	1.020043	-8.227007
O	5.642658	-1.020043	-8.227007
O	5.913117	1.291720	-5.915245
O	10.264968	1.020043	-5.643568
O	5.913117	3.331805	-7.955330
O	7.953813	3.331805	-5.915245
O	7.953813	1.291720	-7.955330
Pm	4.622310	0.000000	-4.623525
Pm	6.933465	-2.311763	-6.935288
Sc	3.466732	-1.155881	-8.091169
Sc	8.089042	1.155881	-5.779406
Sc	10.400197	-1.155881	-5.779406
Sc	5.777887	1.155881	-8.091169
