40

Al	0.000000	0.000000	0.000000
O	1.884270	0.000000	1.884270
O	0.000000	1.884270	1.884270
O	1.884270	1.884270	0.000000
V	1.884270	1.884270	1.884270
Al	0.000000	0.000000	3.768542
O	1.884270	0.000000	5.652812
O	0.000000	1.884270	5.652812
O	1.884270	1.884270	3.768542
V	1.884270	1.884270	5.652812
Al	0.000000	3.768542	0.000000
O	1.884270	3.768542	1.884270
O	0.000000	5.652812	1.884270
O	1.884270	5.652812	0.000000
V	1.884270	5.652812	1.884270
Al	0.000000	3.768542	3.768542
O	1.884270	3.768542	5.652812
O	0.000000	5.652812	5.652812
O	1.884270	5.652812	3.768542
V	1.884270	5.652812	5.652812
Al	3.768542	0.000000	0.000000
O	5.652812	0.000000	1.884270
O	3.768542	1.884270	1.884270
O	5.652812	1.884270	0.000000
V	5.652812	1.884270	1.884270
Al	3.768542	0.000000	3.768542
O	5.652812	0.000000	5.652812
O	3.768542	1.884270	5.652812
O	5.652812	1.884270	3.768542
V	5.652812	1.884270	5.652812
Al	3.768542	3.768542	0.000000
O	5.652812	3.768542	1.884270
O	3.768542	5.652812	1.884270
O	5.652812	5.652812	0.000000
V	5.652812	5.652812	1.884270
Al	3.768542	3.768542	3.768542
O	5.652812	3.768542	5.652812
O	3.768542	5.652812	5.652812
O	5.652812	5.652812	3.768542
V	5.652812	5.652812	5.652812
