40

Nd	0.000000	0.000000	0.000000
O	1.956980	1.956980	0.000000
O	0.000000	1.956980	1.956980
O	1.956980	0.000000	1.956980
Ti	1.956980	1.956980	1.956980
Nd	0.000000	0.000000	3.913959
O	1.956980	1.956980	3.913959
O	0.000000	1.956980	5.870939
O	1.956980	0.000000	5.870939
Ti	1.956980	1.956980	5.870939
Nd	0.000000	3.913959	0.000000
O	1.956980	5.870939	0.000000
O	0.000000	5.870939	1.956980
O	1.956980	3.913959	1.956980
Ti	1.956980	5.870939	1.956980
Nd	0.000000	3.913959	3.913959
O	1.956980	5.870939	3.913959
O	0.000000	5.870939	5.870939
O	1.956980	3.913959	5.870939
Ti	1.956980	5.870939	5.870939
Nd	3.913959	0.000000	0.000000
O	5.870939	1.956980	0.000000
O	3.913959	1.956980	1.956980
O	5.870939	0.000000	1.956980
Ti	5.870939	1.956980	1.956980
Nd	3.913959	0.000000	3.913959
O	5.870939	1.956980	3.913959
O	3.913959	1.956980	5.870939
O	5.870939	0.000000	5.870939
Ti	5.870939	1.956980	5.870939
Nd	3.913959	3.913959	0.000000
O	5.870939	5.870939	0.000000
O	3.913959	5.870939	1.956980
O	5.870939	3.913959	1.956980
Ti	5.870939	5.870939	1.956980
Nd	3.913959	3.913959	3.913959
O	5.870939	5.870939	3.913959
O	3.913959	5.870939	5.870939
O	5.870939	3.913959	5.870939
Ti	5.870939	5.870939	5.870939
