40

O	1.842650	1.842650	0.000000
O	0.000000	1.842650	1.842650
O	1.842650	0.000000	1.842650
Si	1.842650	1.842650	1.842650
Sn_d	0.000000	0.000000	0.000000
O	1.842650	1.842650	3.685303
O	0.000000	1.842650	5.527953
O	1.842650	0.000000	5.527953
Si	1.842650	1.842650	5.527953
Sn_d	0.000000	0.000000	3.685303
O	1.842650	5.527953	0.000000
O	0.000000	5.527953	1.842650
O	1.842650	3.685303	1.842650
Si	1.842650	5.527953	1.842650
Sn_d	0.000000	3.685303	0.000000
O	1.842650	5.527953	3.685303
O	0.000000	5.527953	5.527953
O	1.842650	3.685303	5.527953
Si	1.842650	5.527953	5.527953
Sn_d	0.000000	3.685303	3.685303
O	5.527953	1.842650	0.000000
O	3.685303	1.842650	1.842650
O	5.527953	0.000000	1.842650
Si	5.527953	1.842650	1.842650
Sn_d	3.685303	0.000000	0.000000
O	5.527953	1.842650	3.685303
O	3.685303	1.842650	5.527953
O	5.527953	0.000000	5.527953
Si	5.527953	1.842650	5.527953
Sn_d	3.685303	0.000000	3.685303
O	5.527953	5.527953	0.000000
O	3.685303	5.527953	1.842650
O	5.527953	3.685303	1.842650
Si	5.527953	5.527953	1.842650
Sn_d	3.685303	3.685303	0.000000
O	5.527953	5.527953	3.685303
O	3.685303	5.527953	5.527953
O	5.527953	3.685303	5.527953
Si	5.527953	5.527953	5.527953
Sn_d	3.685303	3.685303	3.685303
