40

Br	2.073717	2.073717	2.073717
O	0.000000	2.073717	2.073717
O	2.073717	0.000000	2.073717
O	2.073717	2.073717	0.000000
Pb	0.000000	0.000000	0.000000
Br	2.073717	2.073717	6.221151
O	0.000000	2.073717	6.221151
O	2.073717	0.000000	6.221151
O	2.073717	2.073717	4.147434
Pb	0.000000	0.000000	4.147434
Br	2.073717	6.221151	2.073717
O	0.000000	6.221151	2.073717
O	2.073717	4.147434	2.073717
O	2.073717	6.221151	0.000000
Pb	0.000000	4.147434	0.000000
Br	2.073717	6.221151	6.221151
O	0.000000	6.221151	6.221151
O	2.073717	4.147434	6.221151
O	2.073717	6.221151	4.147434
Pb	0.000000	4.147434	4.147434
Br	6.221151	2.073717	2.073717
O	4.147434	2.073717	2.073717
O	6.221151	0.000000	2.073717
O	6.221151	2.073717	0.000000
Pb	4.147434	0.000000	0.000000
Br	6.221151	2.073717	6.221151
O	4.147434	2.073717	6.221151
O	6.221151	0.000000	6.221151
O	6.221151	2.073717	4.147434
Pb	4.147434	0.000000	4.147434
Br	6.221151	6.221151	2.073717
O	4.147434	6.221151	2.073717
O	6.221151	4.147434	2.073717
O	6.221151	6.221151	0.000000
Pb	4.147434	4.147434	0.000000
Br	6.221151	6.221151	6.221151
O	4.147434	6.221151	6.221151
O	6.221151	4.147434	6.221151
O	6.221151	6.221151	4.147434
Pb	4.147434	4.147434	4.147434
