40

Br	0.000000	0.000000	0.000000
O	0.000000	2.185222	2.185222
O	2.185222	0.000000	2.185222
O	2.185222	2.185222	0.000000
Pb	2.185222	2.185222	2.185222
Br	0.000000	0.000000	4.370443
O	0.000000	2.185222	6.555665
O	2.185222	0.000000	6.555665
O	2.185222	2.185222	4.370443
Pb	2.185222	2.185222	6.555665
Br	0.000000	4.370443	0.000000
O	0.000000	6.555665	2.185222
O	2.185222	4.370443	2.185222
O	2.185222	6.555665	0.000000
Pb	2.185222	6.555665	2.185222
Br	0.000000	4.370443	4.370443
O	0.000000	6.555665	6.555665
O	2.185222	4.370443	6.555665
O	2.185222	6.555665	4.370443
Pb	2.185222	6.555665	6.555665
Br	4.370443	0.000000	0.000000
O	4.370443	2.185222	2.185222
O	6.555665	0.000000	2.185222
O	6.555665	2.185222	0.000000
Pb	6.555665	2.185222	2.185222
Br	4.370443	0.000000	4.370443
O	4.370443	2.185222	6.555665
O	6.555665	0.000000	6.555665
O	6.555665	2.185222	4.370443
Pb	6.555665	2.185222	6.555665
Br	4.370443	4.370443	0.000000
O	4.370443	6.555665	2.185222
O	6.555665	4.370443	2.185222
O	6.555665	6.555665	0.000000
Pb	6.555665	6.555665	2.185222
Br	4.370443	4.370443	4.370443
O	4.370443	6.555665	6.555665
O	6.555665	4.370443	6.555665
O	6.555665	6.555665	4.370443
Pb	6.555665	6.555665	6.555665
