40

Cl	0.000000	0.000000	0.000000
O	0.000000	1.953720	1.953720
O	1.953720	0.000000	1.953720
O	1.953720	1.953720	0.000000
Rh	1.953720	1.953720	1.953720
Cl	0.000000	0.000000	3.907441
O	0.000000	1.953720	5.861161
O	1.953720	0.000000	5.861161
O	1.953720	1.953720	3.907441
Rh	1.953720	1.953720	5.861161
Cl	0.000000	3.907441	0.000000
O	0.000000	5.861161	1.953720
O	1.953720	3.907441	1.953720
O	1.953720	5.861161	0.000000
Rh	1.953720	5.861161	1.953720
Cl	0.000000	3.907441	3.907441
O	0.000000	5.861161	5.861161
O	1.953720	3.907441	5.861161
O	1.953720	5.861161	3.907441
Rh	1.953720	5.861161	5.861161
Cl	3.907441	0.000000	0.000000
O	3.907441	1.953720	1.953720
O	5.861161	0.000000	1.953720
O	5.861161	1.953720	0.000000
Rh	5.861161	1.953720	1.953720
Cl	3.907441	0.000000	3.907441
O	3.907441	1.953720	5.861161
O	5.861161	0.000000	5.861161
O	5.861161	1.953720	3.907441
Rh	5.861161	1.953720	5.861161
Cl	3.907441	3.907441	0.000000
O	3.907441	5.861161	1.953720
O	5.861161	3.907441	1.953720
O	5.861161	5.861161	0.000000
Rh	5.861161	5.861161	1.953720
Cl	3.907441	3.907441	3.907441
O	3.907441	5.861161	5.861161
O	5.861161	3.907441	5.861161
O	5.861161	5.861161	3.907441
Rh	5.861161	5.861161	5.861161
