40

F	0.000000	0.000000	0.000000
O	0.000000	2.866266	2.866266
O	2.866266	0.000000	2.866266
O	2.866266	2.866266	0.000000
Rb	2.866266	2.866266	2.866266
F	0.000000	0.000000	5.732532
O	0.000000	2.866266	8.598798
O	2.866266	0.000000	8.598798
O	2.866266	2.866266	5.732532
Rb	2.866266	2.866266	8.598798
F	0.000000	5.732532	0.000000
O	0.000000	8.598798	2.866266
O	2.866266	5.732532	2.866266
O	2.866266	8.598798	0.000000
Rb	2.866266	8.598798	2.866266
F	0.000000	5.732532	5.732532
O	0.000000	8.598798	8.598798
O	2.866266	5.732532	8.598798
O	2.866266	8.598798	5.732532
Rb	2.866266	8.598798	8.598798
F	5.732532	0.000000	0.000000
O	5.732532	2.866266	2.866266
O	8.598798	0.000000	2.866266
O	8.598798	2.866266	0.000000
Rb	8.598798	2.866266	2.866266
F	5.732532	0.000000	5.732532
O	5.732532	2.866266	8.598798
O	8.598798	0.000000	8.598798
O	8.598798	2.866266	5.732532
Rb	8.598798	2.866266	8.598798
F	5.732532	5.732532	0.000000
O	5.732532	8.598798	2.866266
O	8.598798	5.732532	2.866266
O	8.598798	8.598798	0.000000
Rb	8.598798	8.598798	2.866266
F	5.732532	5.732532	5.732532
O	5.732532	8.598798	8.598798
O	8.598798	5.732532	8.598798
O	8.598798	8.598798	5.732532
Rb	8.598798	8.598798	8.598798
