40

Cr	0.000000	0.000000	0.000000
O	1.779887	1.779887	0.000000
O	1.779887	0.000000	1.779887
O	0.000000	1.779887	1.779887
Si	1.779887	1.779887	1.779887
Cr	0.000000	0.000000	3.559774
O	1.779887	1.779887	3.559774
O	1.779887	0.000000	5.339661
O	0.000000	1.779887	5.339661
Si	1.779887	1.779887	5.339661
Cr	0.000000	3.559774	0.000000
O	1.779887	5.339661	0.000000
O	1.779887	3.559774	1.779887
O	0.000000	5.339661	1.779887
Si	1.779887	5.339661	1.779887
Cr	0.000000	3.559774	3.559774
O	1.779887	5.339661	3.559774
O	1.779887	3.559774	5.339661
O	0.000000	5.339661	5.339661
Si	1.779887	5.339661	5.339661
Cr	3.559774	0.000000	0.000000
O	5.339661	1.779887	0.000000
O	5.339661	0.000000	1.779887
O	3.559774	1.779887	1.779887
Si	5.339661	1.779887	1.779887
Cr	3.559774	0.000000	3.559774
O	5.339661	1.779887	3.559774
O	5.339661	0.000000	5.339661
O	3.559774	1.779887	5.339661
Si	5.339661	1.779887	5.339661
Cr	3.559774	3.559774	0.000000
O	5.339661	5.339661	0.000000
O	5.339661	3.559774	1.779887
O	3.559774	5.339661	1.779887
Si	5.339661	5.339661	1.779887
Cr	3.559774	3.559774	3.559774
O	5.339661	5.339661	3.559774
O	5.339661	3.559774	5.339661
O	3.559774	5.339661	5.339661
Si	5.339661	5.339661	5.339661
