40

Cd	2.050050	2.050050	2.050050
Li_sv	0.000000	0.000000	0.000000
O	2.050050	2.050050	0.000000
O	0.000000	2.050050	2.050050
O	2.050050	0.000000	2.050050
Cd	2.050050	2.050050	6.150144
Li_sv	0.000000	0.000000	4.100094
O	2.050050	2.050050	4.100094
O	0.000000	2.050050	6.150144
O	2.050050	0.000000	6.150144
Cd	2.050050	6.150144	2.050050
Li_sv	0.000000	4.100094	0.000000
O	2.050050	6.150144	0.000000
O	0.000000	6.150144	2.050050
O	2.050050	4.100094	2.050050
Cd	2.050050	6.150144	6.150144
Li_sv	0.000000	4.100094	4.100094
O	2.050050	6.150144	4.100094
O	0.000000	6.150144	6.150144
O	2.050050	4.100094	6.150144
Cd	6.150144	2.050050	2.050050
Li_sv	4.100094	0.000000	0.000000
O	6.150144	2.050050	0.000000
O	4.100094	2.050050	2.050050
O	6.150144	0.000000	2.050050
Cd	6.150144	2.050050	6.150144
Li_sv	4.100094	0.000000	4.100094
O	6.150144	2.050050	4.100094
O	4.100094	2.050050	6.150144
O	6.150144	0.000000	6.150144
Cd	6.150144	6.150144	2.050050
Li_sv	4.100094	4.100094	0.000000
O	6.150144	6.150144	0.000000
O	4.100094	6.150144	2.050050
O	6.150144	4.100094	2.050050
Cd	6.150144	6.150144	6.150144
Li_sv	4.100094	4.100094	4.100094
O	6.150144	6.150144	4.100094
O	4.100094	6.150144	6.150144
O	6.150144	4.100094	6.150144
