112

Cs	0.000000	0.000000	0.000000
Cs	2.320455	-2.320879	-2.320879
O	-0.876301	0.870573	-3.771194
O	3.764608	-0.870573	-0.870573
O	0.876301	-0.870573	-3.771194
O	1.444153	1.450316	-1.450316
O	5.517200	0.870573	-0.870573
O	1.444153	3.191452	-3.191452
O	3.196756	1.450316	-3.191452
O	3.196756	3.191452	-1.450316
V	-1.160227	-1.160444	-3.481323
V	1.160227	1.160444	-3.481323
V	5.801136	-1.160444	-1.160444
V	3.480682	1.160444	-1.160444
Cs	4.640907	4.641765	0.000000
Cs	6.961361	2.320886	-2.320879
O	3.764606	5.512338	-3.771194
O	8.405515	3.771192	-0.870573
O	5.517208	3.771192	-3.771194
O	6.085060	6.092081	-1.450316
O	10.158107	5.512338	-0.870573
O	6.085060	7.833217	-3.191452
O	7.837662	6.092081	-3.191452
O	7.837663	7.833217	-1.450316
V	3.480680	3.481321	-3.481323
V	5.801134	5.802209	-3.481323
V	10.442043	3.481321	-1.160444
V	8.121589	5.802209	-1.160444
Cs	-4.640907	0.000000	-4.641765
Cs	-2.320452	-2.320879	-6.962644
O	-5.517208	0.870573	-8.412959
O	-0.876299	-0.870573	-5.512338
O	-3.764606	-0.870573	-8.412959
O	-3.196753	1.450316	-6.092081
O	0.876294	0.870573	-5.512338
O	-3.196753	3.191452	-7.833217
O	-1.444151	1.450316	-7.833217
O	-1.444151	3.191452	-6.092081
V	-5.801134	-1.160444	-8.123088
V	-3.480680	1.160444	-8.123088
V	1.160230	-1.160444	-5.802209
V	-1.160225	1.160444	-5.802209
Cs	0.000000	4.641765	-4.641765
Cs	2.320455	2.320886	-6.962644
O	-0.876301	5.512338	-8.412959
O	3.764608	3.771192	-5.512338
O	0.876301	3.771192	-8.412959
O	1.444153	6.092081	-6.092081
O	5.517200	5.512338	-5.512338
O	1.444153	7.833217	-7.833217
O	3.196756	6.092081	-7.833217
O	3.196756	7.833217	-6.092081
V	-1.160227	3.481321	-8.123088
V	1.160227	5.802209	-8.123088
V	5.801136	3.481321	-5.802209
V	3.480682	5.802209	-5.802209
Cs	4.640907	-4.641765	0.000000
Cs	6.961361	-6.962644	-2.320879
O	3.764606	-3.771192	-3.771194
O	8.405515	-5.512338	-0.870573
O	5.517208	-5.512338	-3.771194
O	6.085060	-3.191450	-1.450316
O	10.158107	-3.771192	-0.870573
O	6.085060	-1.450313	-3.191452
O	7.837662	-3.191450	-3.191452
O	7.837663	-1.450313	-1.450316
V	3.480680	-5.802209	-3.481323
V	5.801134	-3.481321	-3.481323
V	10.442043	-5.802209	-1.160444
V	8.121589	-3.481321	-1.160444
Cs	9.281814	0.000000	0.000000
Cs	11.602268	-2.320879	-2.320879
O	8.405512	0.870573	-3.771194
O	13.046421	-0.870573	-0.870573
O	10.158115	-0.870573	-3.771194
O	10.725967	1.450316	-1.450316
O	14.799014	0.870573	-0.870573
O	10.725967	3.191452	-3.191452
O	12.478569	1.450316	-3.191452
O	12.478569	3.191452	-1.450316
V	8.121586	-1.160444	-3.481323
V	10.442041	1.160444	-3.481323
V	15.082950	-1.160444	-1.160444
V	12.762495	1.160444	-1.160444
Cs	0.000000	-4.641765	-4.641765
Cs	2.320455	-6.962644	-6.962644
O	-0.876301	-3.771192	-8.412959
O	3.764608	-5.512338	-5.512338
O	0.876301	-5.512338	-8.412959
O	1.444153	-3.191450	-6.092081
O	5.517200	-3.771192	-5.512338
O	1.444153	-1.450313	-7.833217
O	3.196756	-3.191450	-7.833217
O	3.196756	-1.450313	-6.092081
V	-1.160227	-5.802209	-8.123088
V	1.160227	-3.481321	-8.123088
V	5.801136	-5.802209	-5.802209
V	3.480682	-3.481321	-5.802209
Cs	4.640907	0.000000	-4.641765
Cs	6.961361	-2.320879	-6.962644
O	3.764606	0.870573	-8.412959
O	8.405515	-0.870573	-5.512338
O	5.517208	-0.870573	-8.412959
O	6.085060	1.450316	-6.092081
O	10.158107	0.870573	-5.512338
O	6.085060	3.191452	-7.833217
O	7.837662	1.450316	-7.833217
O	7.837663	3.191452	-6.092081
V	3.480680	-1.160444	-8.123088
V	5.801134	1.160444	-8.123088
V	10.442043	-1.160444	-5.802209
V	8.121589	1.160444	-5.802209
