112

Hg	0.000000	0.000000	0.000000
Hg	2.473539	-2.474408	-2.474408
O	3.826591	-1.120268	-1.120268
O	-1.120487	1.120268	-3.828548
O	1.120487	-1.120268	-3.828548
O	1.353052	1.354140	-1.354140
O	6.067564	1.120268	-1.120268
O	1.353052	3.594676	-3.594676
O	3.594025	3.594676	-1.354140
O	3.594025	1.354140	-3.594676
Pb	-1.236769	-1.237204	-3.711612
Pb	3.710308	1.237204	-1.237204
Pb	6.183847	-1.237204	-1.237204
Pb	1.236769	1.237204	-3.711612
Hg	4.947078	4.948816	0.000000
Hg	7.420616	2.474408	-2.474408
O	8.773668	3.828548	-1.120268
O	3.826591	6.069084	-3.828548
O	6.067564	3.828548	-3.828548
O	6.300130	6.302956	-1.354140
O	11.014642	6.069084	-1.120268
O	6.300130	8.543492	-3.594676
O	8.541103	8.543492	-1.354140
O	8.541103	6.302956	-3.594676
Pb	3.710308	3.711612	-3.711612
Pb	8.657386	6.186020	-1.237204
Pb	11.130924	3.711612	-1.237204
Pb	6.183847	6.186020	-3.711612
Hg	-4.947078	0.000000	-4.948816
Hg	-2.473539	-2.474408	-7.423224
O	-1.120487	-1.120268	-6.069084
O	-6.067564	1.120268	-8.777364
O	-3.826591	-1.120268	-8.777364
O	-3.594025	1.354140	-6.302956
O	1.120487	1.120268	-6.069084
O	-3.594025	3.594676	-8.543492
O	-1.353052	3.594676	-6.302956
O	-1.353052	1.354140	-8.543492
Pb	-6.183847	-1.237204	-8.660428
Pb	-1.236769	1.237204	-6.186020
Pb	1.236769	-1.237204	-6.186020
Pb	-3.710308	1.237204	-8.660428
Hg	0.000000	4.948816	-4.948816
Hg	2.473539	2.474408	-7.423224
O	3.826591	3.828548	-6.069084
O	-1.120487	6.069084	-8.777364
O	1.120487	3.828548	-8.777364
O	1.353052	6.302956	-6.302956
O	6.067564	6.069084	-6.069084
O	1.353052	8.543492	-8.543492
O	3.594025	8.543492	-6.302956
O	3.594025	6.302956	-8.543492
Pb	-1.236769	3.711612	-8.660428
Pb	3.710308	6.186020	-6.186020
Pb	6.183847	3.711612	-6.186020
Pb	1.236769	6.186020	-8.660428
Hg	4.947078	-4.948816	0.000000
Hg	7.420616	-7.423224	-2.474408
O	8.773668	-6.069084	-1.120268
O	3.826591	-3.828548	-3.828548
O	6.067564	-6.069084	-3.828548
O	6.300130	-3.594676	-1.354140
O	11.014642	-3.828548	-1.120268
O	6.300130	-1.354140	-3.594676
O	8.541103	-1.354140	-1.354140
O	8.541103	-3.594676	-3.594676
Pb	3.710308	-6.186020	-3.711612
Pb	8.657386	-3.711612	-1.237204
Pb	11.130924	-6.186020	-1.237204
Pb	6.183847	-3.711612	-3.711612
Hg	9.894155	0.000000	0.000000
Hg	12.367694	-2.474408	-2.474408
O	13.720746	-1.120268	-1.120268
O	8.773668	1.120268	-3.828548
O	11.014642	-1.120268	-3.828548
O	11.247207	1.354140	-1.354140
O	15.961719	1.120268	-1.120268
O	11.247207	3.594676	-3.594676
O	13.488180	3.594676	-1.354140
O	13.488180	1.354140	-3.594676
Pb	8.657386	-1.237204	-3.711612
Pb	13.604463	1.237204	-1.237204
Pb	16.078002	-1.237204	-1.237204
Pb	11.130924	1.237204	-3.711612
Hg	0.000000	-4.948816	-4.948816
Hg	2.473539	-7.423224	-7.423224
O	3.826591	-6.069084	-6.069084
O	-1.120487	-3.828548	-8.777364
O	1.120487	-6.069084	-8.777364
O	1.353052	-3.594676	-6.302956
O	6.067564	-3.828548	-6.069084
O	1.353052	-1.354140	-8.543492
O	3.594025	-1.354140	-6.302956
O	3.594025	-3.594676	-8.543492
Pb	-1.236769	-6.186020	-8.660428
Pb	3.710308	-3.711612	-6.186020
Pb	6.183847	-6.186020	-6.186020
Pb	1.236769	-3.711612	-8.660428
Hg	4.947078	0.000000	-4.948816
Hg	7.420616	-2.474408	-7.423224
O	8.773668	-1.120268	-6.069084
O	3.826591	1.120268	-8.777364
O	6.067564	-1.120268	-8.777364
O	6.300130	1.354140	-6.302956
O	11.014642	1.120268	-6.069084
O	6.300130	3.594676	-8.543492
O	8.541103	3.594676	-6.302956
O	8.541103	1.354140	-8.543492
Pb	3.710308	-1.237204	-8.660428
Pb	8.657386	1.237204	-6.186020
Pb	11.130924	-1.237204	-6.186020
Pb	6.183847	1.237204	-8.660428
