112

Ca	0.000000	0.000000	0.000000
Ca	2.752210	-2.752442	-2.752442
O	4.046310	-1.457605	-1.457605
O	-1.458111	1.457605	-4.047279
O	1.458111	-1.457605	-4.047279
O	1.294100	1.294837	-1.294837
O	6.962531	1.457605	-1.457605
O	1.294100	4.210047	-4.210047
O	4.210321	4.210047	-1.294837
O	4.210321	1.294837	-4.210047
Rb	-1.376105	-1.376221	-4.128663
Rb	4.128316	1.376221	-1.376221
Rb	6.880526	-1.376221	-1.376221
Rb	1.376105	1.376221	-4.128663
Ca	5.504421	5.504884	0.000000
Ca	8.256631	2.752442	-2.752442
O	9.550731	4.047279	-1.457605
O	4.046310	6.962489	-4.047279
O	6.962531	4.047279	-4.047279
O	6.798520	6.799722	-1.294837
O	12.466952	6.962489	-1.457605
O	6.798520	9.714932	-4.210047
O	9.714742	9.714932	-1.294837
O	9.714742	6.799722	-4.210047
Rb	4.128316	4.128663	-4.128663
Rb	9.632736	6.881105	-1.376221
Rb	12.384947	4.128663	-1.376221
Rb	6.880526	6.881105	-4.128663
Ca	-5.504421	0.000000	-5.504884
Ca	-2.752210	-2.752442	-8.257327
O	-1.458111	-1.457605	-6.962489
O	-6.962531	1.457605	-9.552164
O	-4.046310	-1.457605	-9.552164
O	-4.210321	1.294837	-6.799722
O	1.458111	1.457605	-6.962489
O	-4.210321	4.210047	-9.714932
O	-1.294100	4.210047	-6.799722
O	-1.294100	1.294837	-9.714932
Rb	-6.880526	-1.376221	-9.633548
Rb	-1.376105	1.376221	-6.881105
Rb	1.376105	-1.376221	-6.881105
Rb	-4.128316	1.376221	-9.633548
Ca	0.000000	5.504884	-5.504884
Ca	2.752210	2.752442	-8.257327
O	4.046310	4.047279	-6.962489
O	-1.458111	6.962489	-9.552164
O	1.458111	4.047279	-9.552164
O	1.294100	6.799722	-6.799722
O	6.962531	6.962489	-6.962489
O	1.294100	9.714932	-9.714932
O	4.210321	9.714932	-6.799722
O	4.210321	6.799722	-9.714932
Rb	-1.376105	4.128663	-9.633548
Rb	4.128316	6.881105	-6.881105
Rb	6.880526	4.128663	-6.881105
Rb	1.376105	6.881105	-9.633548
Ca	5.504421	-5.504884	0.000000
Ca	8.256631	-8.257327	-2.752442
O	9.550731	-6.962489	-1.457605
O	4.046310	-4.047279	-4.047279
O	6.962531	-6.962489	-4.047279
O	6.798520	-4.210047	-1.294837
O	12.466952	-4.047279	-1.457605
O	6.798520	-1.294837	-4.210047
O	9.714742	-1.294837	-1.294837
O	9.714742	-4.210047	-4.210047
Rb	4.128316	-6.881105	-4.128663
Rb	9.632736	-4.128663	-1.376221
Rb	12.384947	-6.881105	-1.376221
Rb	6.880526	-4.128663	-4.128663
Ca	11.008841	0.000000	0.000000
Ca	13.761052	-2.752442	-2.752442
O	15.055151	-1.457605	-1.457605
O	9.550731	1.457605	-4.047279
O	12.466952	-1.457605	-4.047279
O	12.302941	1.294837	-1.294837
O	17.971373	1.457605	-1.457605
O	12.302941	4.210047	-4.210047
O	15.219162	4.210047	-1.294837
O	15.219162	1.294837	-4.210047
Rb	9.632736	-1.376221	-4.128663
Rb	15.137157	1.376221	-1.376221
Rb	17.889367	-1.376221	-1.376221
Rb	12.384947	1.376221	-4.128663
Ca	0.000000	-5.504884	-5.504884
Ca	2.752210	-8.257327	-8.257327
O	4.046310	-6.962489	-6.962489
O	-1.458111	-4.047279	-9.552164
O	1.458111	-6.962489	-9.552164
O	1.294100	-4.210047	-6.799722
O	6.962531	-4.047279	-6.962489
O	1.294100	-1.294837	-9.714932
O	4.210321	-1.294837	-6.799722
O	4.210321	-4.210047	-9.714932
Rb	-1.376105	-6.881105	-9.633548
Rb	4.128316	-4.128663	-6.881105
Rb	6.880526	-6.881105	-6.881105
Rb	1.376105	-4.128663	-9.633548
Ca	5.504421	0.000000	-5.504884
Ca	8.256631	-2.752442	-8.257327
O	9.550731	-1.457605	-6.962489
O	4.046310	1.457605	-9.552164
O	6.962531	-1.457605	-9.552164
O	6.798520	1.294837	-6.799722
O	12.466952	1.457605	-6.962489
O	6.798520	4.210047	-9.714932
O	9.714742	4.210047	-6.799722
O	9.714742	1.294837	-9.714932
Rb	4.128316	-1.376221	-9.633548
Rb	9.632736	1.376221	-6.881105
Rb	12.384947	-1.376221	-6.881105
Rb	6.880526	1.376221	-9.633548
