40

Be	1.790075	1.790075	1.790075
O	1.790075	1.790075	0.000000
O	1.790075	0.000000	1.790075
O	0.000000	1.790075	1.790075
Tb	0.000000	0.000000	0.000000
Be	1.790075	1.790075	5.370224
O	1.790075	1.790075	3.580150
O	1.790075	0.000000	5.370224
O	0.000000	1.790075	5.370224
Tb	0.000000	0.000000	3.580150
Be	1.790075	5.370224	1.790075
O	1.790075	5.370224	0.000000
O	1.790075	3.580150	1.790075
O	0.000000	5.370224	1.790075
Tb	0.000000	3.580150	0.000000
Be	1.790075	5.370224	5.370224
O	1.790075	5.370224	3.580150
O	1.790075	3.580150	5.370224
O	0.000000	5.370224	5.370224
Tb	0.000000	3.580150	3.580150
Be	5.370224	1.790075	1.790075
O	5.370224	1.790075	0.000000
O	5.370224	0.000000	1.790075
O	3.580150	1.790075	1.790075
Tb	3.580150	0.000000	0.000000
Be	5.370224	1.790075	5.370224
O	5.370224	1.790075	3.580150
O	5.370224	0.000000	5.370224
O	3.580150	1.790075	5.370224
Tb	3.580150	0.000000	3.580150
Be	5.370224	5.370224	1.790075
O	5.370224	5.370224	0.000000
O	5.370224	3.580150	1.790075
O	3.580150	5.370224	1.790075
Tb	3.580150	3.580150	0.000000
Be	5.370224	5.370224	5.370224
O	5.370224	5.370224	3.580150
O	5.370224	3.580150	5.370224
O	3.580150	5.370224	5.370224
Tb	3.580150	3.580150	3.580150
