40

Cu	1.866360	1.866360	1.866360
O	1.866360	1.866360	0.000000
O	0.000000	1.866360	1.866360
O	1.866360	0.000000	1.866360
Y	0.000000	0.000000	0.000000
Cu	1.866360	1.866360	5.599074
O	1.866360	1.866360	3.732714
O	0.000000	1.866360	5.599074
O	1.866360	0.000000	5.599074
Y	0.000000	0.000000	3.732714
Cu	1.866360	5.599074	1.866360
O	1.866360	5.599074	0.000000
O	0.000000	5.599074	1.866360
O	1.866360	3.732714	1.866360
Y	0.000000	3.732714	0.000000
Cu	1.866360	5.599074	5.599074
O	1.866360	5.599074	3.732714
O	0.000000	5.599074	5.599074
O	1.866360	3.732714	5.599074
Y	0.000000	3.732714	3.732714
Cu	5.599074	1.866360	1.866360
O	5.599074	1.866360	0.000000
O	3.732714	1.866360	1.866360
O	5.599074	0.000000	1.866360
Y	3.732714	0.000000	0.000000
Cu	5.599074	1.866360	5.599074
O	5.599074	1.866360	3.732714
O	3.732714	1.866360	5.599074
O	5.599074	0.000000	5.599074
Y	3.732714	0.000000	3.732714
Cu	5.599074	5.599074	1.866360
O	5.599074	5.599074	0.000000
O	3.732714	5.599074	1.866360
O	5.599074	3.732714	1.866360
Y	3.732714	3.732714	0.000000
Cu	5.599074	5.599074	5.599074
O	5.599074	5.599074	3.732714
O	3.732714	5.599074	5.599074
O	5.599074	3.732714	5.599074
Y	3.732714	3.732714	3.732714
