40

O	0.000000	2.020114	2.020114
O	2.020114	0.000000	2.020114
O	2.020114	2.020114	0.000000
Rb	0.000000	0.000000	0.000000
Rh	2.020114	2.020114	2.020114
O	0.000000	2.020114	6.060341
O	2.020114	0.000000	6.060341
O	2.020114	2.020114	4.040227
Rb	0.000000	0.000000	4.040227
Rh	2.020114	2.020114	6.060341
O	0.000000	6.060341	2.020114
O	2.020114	4.040227	2.020114
O	2.020114	6.060341	0.000000
Rb	0.000000	4.040227	0.000000
Rh	2.020114	6.060341	2.020114
O	0.000000	6.060341	6.060341
O	2.020114	4.040227	6.060341
O	2.020114	6.060341	4.040227
Rb	0.000000	4.040227	4.040227
Rh	2.020114	6.060341	6.060341
O	4.040227	2.020114	2.020114
O	6.060341	0.000000	2.020114
O	6.060341	2.020114	0.000000
Rb	4.040227	0.000000	0.000000
Rh	6.060341	2.020114	2.020114
O	4.040227	2.020114	6.060341
O	6.060341	0.000000	6.060341
O	6.060341	2.020114	4.040227
Rb	4.040227	0.000000	4.040227
Rh	6.060341	2.020114	6.060341
O	4.040227	6.060341	2.020114
O	6.060341	4.040227	2.020114
O	6.060341	6.060341	0.000000
Rb	4.040227	4.040227	0.000000
Rh	6.060341	6.060341	2.020114
O	4.040227	6.060341	6.060341
O	6.060341	4.040227	6.060341
O	6.060341	6.060341	4.040227
Rb	4.040227	4.040227	4.040227
Rh	6.060341	6.060341	6.060341
