40

O	2.160550	2.160550	0.000000
O	2.160550	0.000000	2.160550
O	0.000000	2.160550	2.160550
Rb	2.160550	2.160550	2.160550
Rh	0.000000	0.000000	0.000000
O	2.160550	2.160550	4.321090
O	2.160550	0.000000	6.481640
O	0.000000	2.160550	6.481640
Rb	2.160550	2.160550	6.481640
Rh	0.000000	0.000000	4.321090
O	2.160550	6.481640	0.000000
O	2.160550	4.321090	2.160550
O	0.000000	6.481640	2.160550
Rb	2.160550	6.481640	2.160550
Rh	0.000000	4.321090	0.000000
O	2.160550	6.481640	4.321090
O	2.160550	4.321090	6.481640
O	0.000000	6.481640	6.481640
Rb	2.160550	6.481640	6.481640
Rh	0.000000	4.321090	4.321090
O	6.481640	2.160550	0.000000
O	6.481640	0.000000	2.160550
O	4.321090	2.160550	2.160550
Rb	6.481640	2.160550	2.160550
Rh	4.321090	0.000000	0.000000
O	6.481640	2.160550	4.321090
O	6.481640	0.000000	6.481640
O	4.321090	2.160550	6.481640
Rb	6.481640	2.160550	6.481640
Rh	4.321090	0.000000	4.321090
O	6.481640	6.481640	0.000000
O	6.481640	4.321090	2.160550
O	4.321090	6.481640	2.160550
Rb	6.481640	6.481640	2.160550
Rh	4.321090	4.321090	0.000000
O	6.481640	6.481640	4.321090
O	6.481640	4.321090	6.481640
O	4.321090	6.481640	6.481640
Rb	6.481640	6.481640	6.481640
Rh	4.321090	4.321090	4.321090
