40

O	1.958960	1.958960	0.000000
O	0.000000	1.958960	1.958960
O	1.958960	0.000000	1.958960
Sr_sv	0.000000	0.000000	0.000000
Ti	1.958960	1.958960	1.958960
O	1.958960	1.958960	3.917921
O	0.000000	1.958960	5.876881
O	1.958960	0.000000	5.876881
Sr_sv	0.000000	0.000000	3.917921
Ti	1.958960	1.958960	5.876881
O	1.958960	5.876881	0.000000
O	0.000000	5.876881	1.958960
O	1.958960	3.917921	1.958960
Sr_sv	0.000000	3.917921	0.000000
Ti	1.958960	5.876881	1.958960
O	1.958960	5.876881	3.917921
O	0.000000	5.876881	5.876881
O	1.958960	3.917921	5.876881
Sr_sv	0.000000	3.917921	3.917921
Ti	1.958960	5.876881	5.876881
O	5.876881	1.958960	0.000000
O	3.917921	1.958960	1.958960
O	5.876881	0.000000	1.958960
Sr_sv	3.917921	0.000000	0.000000
Ti	5.876881	1.958960	1.958960
O	5.876881	1.958960	3.917921
O	3.917921	1.958960	5.876881
O	5.876881	0.000000	5.876881
Sr_sv	3.917921	0.000000	3.917921
Ti	5.876881	1.958960	5.876881
O	5.876881	5.876881	0.000000
O	3.917921	5.876881	1.958960
O	5.876881	3.917921	1.958960
Sr_sv	3.917921	3.917921	0.000000
Ti	5.876881	5.876881	1.958960
O	5.876881	5.876881	3.917921
O	3.917921	5.876881	5.876881
O	5.876881	3.917921	5.876881
Sr_sv	3.917921	3.917921	3.917921
Ti	5.876881	5.876881	5.876881
