40

O	0.000000	2.087401	2.087401
O	2.087401	0.000000	2.087401
O	2.087401	2.087401	0.000000
Te	2.087401	2.087401	2.087401
V	0.000000	0.000000	0.000000
O	0.000000	2.087401	6.262203
O	2.087401	0.000000	6.262203
O	2.087401	2.087401	4.174802
Te	2.087401	2.087401	6.262203
V	0.000000	0.000000	4.174802
O	0.000000	6.262203	2.087401
O	2.087401	4.174802	2.087401
O	2.087401	6.262203	0.000000
Te	2.087401	6.262203	2.087401
V	0.000000	4.174802	0.000000
O	0.000000	6.262203	6.262203
O	2.087401	4.174802	6.262203
O	2.087401	6.262203	4.174802
Te	2.087401	6.262203	6.262203
V	0.000000	4.174802	4.174802
O	4.174802	2.087401	2.087401
O	6.262203	0.000000	2.087401
O	6.262203	2.087401	0.000000
Te	6.262203	2.087401	2.087401
V	4.174802	0.000000	0.000000
O	4.174802	2.087401	6.262203
O	6.262203	0.000000	6.262203
O	6.262203	2.087401	4.174802
Te	6.262203	2.087401	6.262203
V	4.174802	0.000000	4.174802
O	4.174802	6.262203	2.087401
O	6.262203	4.174802	2.087401
O	6.262203	6.262203	0.000000
Te	6.262203	6.262203	2.087401
V	4.174802	4.174802	0.000000
O	4.174802	6.262203	6.262203
O	6.262203	4.174802	6.262203
O	6.262203	6.262203	4.174802
Te	6.262203	6.262203	6.262203
V	4.174802	4.174802	4.174802
