40

Ac	2.331820	2.331820	2.331820
Ba_sv	0.000000	0.000000	0.000000
O	2.331820	0.000000	2.331820
O	0.000000	2.331820	2.331820
O	2.331820	2.331820	0.000000
Ac	2.331820	2.331820	6.995479
Ba_sv	0.000000	0.000000	4.663659
O	2.331820	0.000000	6.995479
O	0.000000	2.331820	6.995479
O	2.331820	2.331820	4.663659
Ac	2.331820	6.995479	2.331820
Ba_sv	0.000000	4.663659	0.000000
O	2.331820	4.663659	2.331820
O	0.000000	6.995479	2.331820
O	2.331820	6.995479	0.000000
Ac	2.331820	6.995479	6.995479
Ba_sv	0.000000	4.663659	4.663659
O	2.331820	4.663659	6.995479
O	0.000000	6.995479	6.995479
O	2.331820	6.995479	4.663659
Ac	6.995479	2.331820	2.331820
Ba_sv	4.663659	0.000000	0.000000
O	6.995479	0.000000	2.331820
O	4.663659	2.331820	2.331820
O	6.995479	2.331820	0.000000
Ac	6.995479	2.331820	6.995479
Ba_sv	4.663659	0.000000	4.663659
O	6.995479	0.000000	6.995479
O	4.663659	2.331820	6.995479
O	6.995479	2.331820	4.663659
Ac	6.995479	6.995479	2.331820
Ba_sv	4.663659	4.663659	0.000000
O	6.995479	4.663659	2.331820
O	4.663659	6.995479	2.331820
O	6.995479	6.995479	0.000000
Ac	6.995479	6.995479	6.995479
Ba_sv	4.663659	4.663659	4.663659
O	6.995479	4.663659	6.995479
O	4.663659	6.995479	6.995479
O	6.995479	6.995479	4.663659
