40

Ac	2.359004	2.359004	2.359004
Ba	0.000000	0.000000	0.000000
O	2.359004	2.359004	0.000000
O	2.359004	0.000000	2.359004
O	0.000000	2.359004	2.359004
Ac	2.359004	2.359004	7.077011
Ba	0.000000	0.000000	4.718007
O	2.359004	2.359004	4.718007
O	2.359004	0.000000	7.077011
O	0.000000	2.359004	7.077011
Ac	2.359004	7.077011	2.359004
Ba	0.000000	4.718007	0.000000
O	2.359004	7.077011	0.000000
O	2.359004	4.718007	2.359004
O	0.000000	7.077011	2.359004
Ac	2.359004	7.077011	7.077011
Ba	0.000000	4.718007	4.718007
O	2.359004	7.077011	4.718007
O	2.359004	4.718007	7.077011
O	0.000000	7.077011	7.077011
Ac	7.077011	2.359004	2.359004
Ba	4.718007	0.000000	0.000000
O	7.077011	2.359004	0.000000
O	7.077011	0.000000	2.359004
O	4.718007	2.359004	2.359004
Ac	7.077011	2.359004	7.077011
Ba	4.718007	0.000000	4.718007
O	7.077011	2.359004	4.718007
O	7.077011	0.000000	7.077011
O	4.718007	2.359004	7.077011
Ac	7.077011	7.077011	2.359004
Ba	4.718007	4.718007	0.000000
O	7.077011	7.077011	0.000000
O	7.077011	4.718007	2.359004
O	4.718007	7.077011	2.359004
Ac	7.077011	7.077011	7.077011
Ba	4.718007	4.718007	4.718007
O	7.077011	7.077011	4.718007
O	7.077011	4.718007	7.077011
O	4.718007	7.077011	7.077011
