40

Er	2.136498	2.136498	2.136498
Eu	0.000000	0.000000	0.000000
O	2.136498	2.136498	0.000000
O	2.136498	0.000000	2.136498
O	0.000000	2.136498	2.136498
Er	2.136498	2.136498	6.409494
Eu	0.000000	0.000000	4.272996
O	2.136498	2.136498	4.272996
O	2.136498	0.000000	6.409494
O	0.000000	2.136498	6.409494
Er	2.136498	6.409494	2.136498
Eu	0.000000	4.272996	0.000000
O	2.136498	6.409494	0.000000
O	2.136498	4.272996	2.136498
O	0.000000	6.409494	2.136498
Er	2.136498	6.409494	6.409494
Eu	0.000000	4.272996	4.272996
O	2.136498	6.409494	4.272996
O	2.136498	4.272996	6.409494
O	0.000000	6.409494	6.409494
Er	6.409494	2.136498	2.136498
Eu	4.272996	0.000000	0.000000
O	6.409494	2.136498	0.000000
O	6.409494	0.000000	2.136498
O	4.272996	2.136498	2.136498
Er	6.409494	2.136498	6.409494
Eu	4.272996	0.000000	4.272996
O	6.409494	2.136498	4.272996
O	6.409494	0.000000	6.409494
O	4.272996	2.136498	6.409494
Er	6.409494	6.409494	2.136498
Eu	4.272996	4.272996	0.000000
O	6.409494	6.409494	0.000000
O	6.409494	4.272996	2.136498
O	4.272996	6.409494	2.136498
Er	6.409494	6.409494	6.409494
Eu	4.272996	4.272996	4.272996
O	6.409494	6.409494	4.272996
O	6.409494	4.272996	6.409494
O	4.272996	6.409494	6.409494
