40

O	0.000000	1.981018	1.981018
O	1.981018	0.000000	1.981018
O	1.981018	1.981018	0.000000
Pt	1.981018	1.981018	1.981018
V	0.000000	0.000000	0.000000
O	0.000000	1.981018	5.943053
O	1.981018	0.000000	5.943053
O	1.981018	1.981018	3.962036
Pt	1.981018	1.981018	5.943053
V	0.000000	0.000000	3.962036
O	0.000000	5.943053	1.981018
O	1.981018	3.962036	1.981018
O	1.981018	5.943053	0.000000
Pt	1.981018	5.943053	1.981018
V	0.000000	3.962036	0.000000
O	0.000000	5.943053	5.943053
O	1.981018	3.962036	5.943053
O	1.981018	5.943053	3.962036
Pt	1.981018	5.943053	5.943053
V	0.000000	3.962036	3.962036
O	3.962036	1.981018	1.981018
O	5.943053	0.000000	1.981018
O	5.943053	1.981018	0.000000
Pt	5.943053	1.981018	1.981018
V	3.962036	0.000000	0.000000
O	3.962036	1.981018	5.943053
O	5.943053	0.000000	5.943053
O	5.943053	1.981018	3.962036
Pt	5.943053	1.981018	5.943053
V	3.962036	0.000000	3.962036
O	3.962036	5.943053	1.981018
O	5.943053	3.962036	1.981018
O	5.943053	5.943053	0.000000
Pt	5.943053	5.943053	1.981018
V	3.962036	3.962036	0.000000
O	3.962036	5.943053	5.943053
O	5.943053	3.962036	5.943053
O	5.943053	5.943053	3.962036
Pt	5.943053	5.943053	5.943053
V	3.962036	3.962036	3.962036
