40

O	0.000000	0.000000	2.165054
O	2.165054	0.000000	0.000000
O	0.000000	2.165054	0.000000
Sr	0.000000	0.000000	0.000000
Zr	2.150054	2.165054	2.165054
O	0.000000	0.000000	6.495162
O	2.165054	0.000000	4.330108
O	0.000000	2.165054	4.330108
Sr	0.000000	0.000000	4.330108
Zr	2.150054	2.165054	6.495162
O	0.000000	4.330108	2.165054
O	2.165054	4.330108	0.000000
O	0.000000	6.495162	0.000000
Sr	0.000000	4.330108	0.000000
Zr	2.150054	6.495162	2.165054
O	0.000000	4.330108	6.495162
O	2.165054	4.330108	4.330108
O	0.000000	6.495162	4.330108
Sr	0.000000	4.330108	4.330108
Zr	2.150054	6.495162	6.495162
O	4.330108	0.000000	2.165054
O	6.495162	0.000000	0.000000
O	4.330108	2.165054	0.000000
Sr	4.330108	0.000000	0.000000
Zr	6.480162	2.165054	2.165054
O	4.330108	0.000000	6.495162
O	6.495162	0.000000	4.330108
O	4.330108	2.165054	4.330108
Sr	4.330108	0.000000	4.330108
Zr	6.480162	2.165054	6.495162
O	4.330108	4.330108	2.165054
O	6.495162	4.330108	0.000000
O	4.330108	6.495162	0.000000
Sr	4.330108	4.330108	0.000000
Zr	6.480162	6.495162	2.165054
O	4.330108	4.330108	6.495162
O	6.495162	4.330108	4.330108
O	4.330108	6.495162	4.330108
Sr	4.330108	4.330108	4.330108
Zr	6.480162	6.495162	6.495162
