40

Au	2.037160	2.037160	2.037160
Nb	0.000000	0.000000	0.000000
O	0.000000	2.037160	2.037160
O	2.037160	0.000000	2.037160
O	2.037160	2.037160	0.000000
Au	2.037160	2.037160	6.111480
Nb	0.000000	0.000000	4.074320
O	0.000000	2.037160	6.111480
O	2.037160	0.000000	6.111480
O	2.037160	2.037160	4.074320
Au	2.037160	6.111480	2.037160
Nb	0.000000	4.074320	0.000000
O	0.000000	6.111480	2.037160
O	2.037160	4.074320	2.037160
O	2.037160	6.111480	0.000000
Au	2.037160	6.111480	6.111480
Nb	0.000000	4.074320	4.074320
O	0.000000	6.111480	6.111480
O	2.037160	4.074320	6.111480
O	2.037160	6.111480	4.074320
Au	6.111480	2.037160	2.037160
Nb	4.074320	0.000000	0.000000
O	4.074320	2.037160	2.037160
O	6.111480	0.000000	2.037160
O	6.111480	2.037160	0.000000
Au	6.111480	2.037160	6.111480
Nb	4.074320	0.000000	4.074320
O	4.074320	2.037160	6.111480
O	6.111480	0.000000	6.111480
O	6.111480	2.037160	4.074320
Au	6.111480	6.111480	2.037160
Nb	4.074320	4.074320	0.000000
O	4.074320	6.111480	2.037160
O	6.111480	4.074320	2.037160
O	6.111480	6.111480	0.000000
Au	6.111480	6.111480	6.111480
Nb	4.074320	4.074320	4.074320
O	4.074320	6.111480	6.111480
O	6.111480	4.074320	6.111480
O	6.111480	6.111480	4.074320
