40

Ag	2.020113	2.020113	2.020113
Cd	0.000000	0.000000	0.000000
O	0.000000	2.020113	2.020113
O	2.020113	0.000000	2.020113
O	2.020113	2.020113	0.000000
Ag	2.020113	2.020113	6.060339
Cd	0.000000	0.000000	4.040226
O	0.000000	2.020113	6.060339
O	2.020113	0.000000	6.060339
O	2.020113	2.020113	4.040226
Ag	2.020113	6.060339	2.020113
Cd	0.000000	4.040226	0.000000
O	0.000000	6.060339	2.020113
O	2.020113	4.040226	2.020113
O	2.020113	6.060339	0.000000
Ag	2.020113	6.060339	6.060339
Cd	0.000000	4.040226	4.040226
O	0.000000	6.060339	6.060339
O	2.020113	4.040226	6.060339
O	2.020113	6.060339	4.040226
Ag	6.060339	2.020113	2.020113
Cd	4.040226	0.000000	0.000000
O	4.040226	2.020113	2.020113
O	6.060339	0.000000	2.020113
O	6.060339	2.020113	0.000000
Ag	6.060339	2.020113	6.060339
Cd	4.040226	0.000000	4.040226
O	4.040226	2.020113	6.060339
O	6.060339	0.000000	6.060339
O	6.060339	2.020113	4.040226
Ag	6.060339	6.060339	2.020113
Cd	4.040226	4.040226	0.000000
O	4.040226	6.060339	2.020113
O	6.060339	4.040226	2.020113
O	6.060339	6.060339	0.000000
Ag	6.060339	6.060339	6.060339
Cd	4.040226	4.040226	4.040226
O	4.040226	6.060339	6.060339
O	6.060339	4.040226	6.060339
O	6.060339	6.060339	4.040226
