40

Na	2.015459	2.015459	2.015459
O	0.000000	2.015459	2.015459
O	2.015459	0.000000	2.015459
O	2.015459	2.015459	0.000000
Sb	0.000000	0.000000	0.000000
Na	2.015459	2.015459	6.046376
O	0.000000	2.015459	6.046376
O	2.015459	0.000000	6.046376
O	2.015459	2.015459	4.030918
Sb	0.000000	0.000000	4.030918
Na	2.015459	6.046376	2.015459
O	0.000000	6.046376	2.015459
O	2.015459	4.030918	2.015459
O	2.015459	6.046376	0.000000
Sb	0.000000	4.030918	0.000000
Na	2.015459	6.046376	6.046376
O	0.000000	6.046376	6.046376
O	2.015459	4.030918	6.046376
O	2.015459	6.046376	4.030918
Sb	0.000000	4.030918	4.030918
Na	6.046376	2.015459	2.015459
O	4.030918	2.015459	2.015459
O	6.046376	0.000000	2.015459
O	6.046376	2.015459	0.000000
Sb	4.030918	0.000000	0.000000
Na	6.046376	2.015459	6.046376
O	4.030918	2.015459	6.046376
O	6.046376	0.000000	6.046376
O	6.046376	2.015459	4.030918
Sb	4.030918	0.000000	4.030918
Na	6.046376	6.046376	2.015459
O	4.030918	6.046376	2.015459
O	6.046376	4.030918	2.015459
O	6.046376	6.046376	0.000000
Sb	4.030918	4.030918	0.000000
Na	6.046376	6.046376	6.046376
O	4.030918	6.046376	6.046376
O	6.046376	4.030918	6.046376
O	6.046376	6.046376	4.030918
Sb	4.030918	4.030918	4.030918
