40

Ga	1.897130	1.897130	1.897130
Mn	0.000000	0.000000	0.000000
O	1.897130	1.897130	0.000000
O	0.000000	1.897130	1.897130
O	1.897130	0.000000	1.897130
Ga	1.897130	1.897130	5.691395
Mn	0.000000	0.000000	3.794265
O	1.897130	1.897130	3.794265
O	0.000000	1.897130	5.691395
O	1.897130	0.000000	5.691395
Ga	1.897130	5.691395	1.897130
Mn	0.000000	3.794265	0.000000
O	1.897130	5.691395	0.000000
O	0.000000	5.691395	1.897130
O	1.897130	3.794265	1.897130
Ga	1.897130	5.691395	5.691395
Mn	0.000000	3.794265	3.794265
O	1.897130	5.691395	3.794265
O	0.000000	5.691395	5.691395
O	1.897130	3.794265	5.691395
Ga	5.691395	1.897130	1.897130
Mn	3.794265	0.000000	0.000000
O	5.691395	1.897130	0.000000
O	3.794265	1.897130	1.897130
O	5.691395	0.000000	1.897130
Ga	5.691395	1.897130	5.691395
Mn	3.794265	0.000000	3.794265
O	5.691395	1.897130	3.794265
O	3.794265	1.897130	5.691395
O	5.691395	0.000000	5.691395
Ga	5.691395	5.691395	1.897130
Mn	3.794265	3.794265	0.000000
O	5.691395	5.691395	0.000000
O	3.794265	5.691395	1.897130
O	5.691395	3.794265	1.897130
Ga	5.691395	5.691395	5.691395
Mn	3.794265	3.794265	3.794265
O	5.691395	5.691395	3.794265
O	3.794265	5.691395	5.691395
O	5.691395	3.794265	5.691395
