40

Mn	1.876615	1.876615	1.876615
O	0.000000	1.876615	1.876615
O	1.876615	0.000000	1.876615
O	1.876615	1.876615	0.000000
Se	0.000000	0.000000	0.000000
Mn	1.876615	1.876615	5.629846
O	0.000000	1.876615	5.629846
O	1.876615	0.000000	5.629846
O	1.876615	1.876615	3.753231
Se	0.000000	0.000000	3.753231
Mn	1.876615	5.629846	1.876615
O	0.000000	5.629846	1.876615
O	1.876615	3.753231	1.876615
O	1.876615	5.629846	0.000000
Se	0.000000	3.753231	0.000000
Mn	1.876615	5.629846	5.629846
O	0.000000	5.629846	5.629846
O	1.876615	3.753231	5.629846
O	1.876615	5.629846	3.753231
Se	0.000000	3.753231	3.753231
Mn	5.629846	1.876615	1.876615
O	3.753231	1.876615	1.876615
O	5.629846	0.000000	1.876615
O	5.629846	1.876615	0.000000
Se	3.753231	0.000000	0.000000
Mn	5.629846	1.876615	5.629846
O	3.753231	1.876615	5.629846
O	5.629846	0.000000	5.629846
O	5.629846	1.876615	3.753231
Se	3.753231	0.000000	3.753231
Mn	5.629846	5.629846	1.876615
O	3.753231	5.629846	1.876615
O	5.629846	3.753231	1.876615
O	5.629846	5.629846	0.000000
Se	3.753231	3.753231	0.000000
Mn	5.629846	5.629846	5.629846
O	3.753231	5.629846	5.629846
O	5.629846	3.753231	5.629846
O	5.629846	5.629846	3.753231
Se	3.753231	3.753231	3.753231
