40

F	1.837857	1.837857	1.837857
Ni	0.000000	0.000000	0.000000
O	0.000000	1.837857	1.837857
O	1.837857	0.000000	1.837857
O	1.837857	1.837857	0.000000
F	1.837857	1.837857	5.513571
Ni	0.000000	0.000000	3.675714
O	0.000000	1.837857	5.513571
O	1.837857	0.000000	5.513571
O	1.837857	1.837857	3.675714
F	1.837857	5.513571	1.837857
Ni	0.000000	3.675714	0.000000
O	0.000000	5.513571	1.837857
O	1.837857	3.675714	1.837857
O	1.837857	5.513571	0.000000
F	1.837857	5.513571	5.513571
Ni	0.000000	3.675714	3.675714
O	0.000000	5.513571	5.513571
O	1.837857	3.675714	5.513571
O	1.837857	5.513571	3.675714
F	5.513571	1.837857	1.837857
Ni	3.675714	0.000000	0.000000
O	3.675714	1.837857	1.837857
O	5.513571	0.000000	1.837857
O	5.513571	1.837857	0.000000
F	5.513571	1.837857	5.513571
Ni	3.675714	0.000000	3.675714
O	3.675714	1.837857	5.513571
O	5.513571	0.000000	5.513571
O	5.513571	1.837857	3.675714
F	5.513571	5.513571	1.837857
Ni	3.675714	3.675714	0.000000
O	3.675714	5.513571	1.837857
O	5.513571	3.675714	1.837857
O	5.513571	5.513571	0.000000
F	5.513571	5.513571	5.513571
Ni	3.675714	3.675714	3.675714
O	3.675714	5.513571	5.513571
O	5.513571	3.675714	5.513571
O	5.513571	5.513571	3.675714
