40

Ag	0.000000	0.000000	0.000000
Br	1.992548	1.992548	1.992548
O	0.000000	1.992548	1.992548
O	1.992548	0.000000	1.992548
O	1.992548	1.992548	0.000000
Ag	0.000000	0.000000	3.985096
Br	1.992548	1.992548	5.977644
O	0.000000	1.992548	5.977644
O	1.992548	0.000000	5.977644
O	1.992548	1.992548	3.985096
Ag	0.000000	3.985096	0.000000
Br	1.992548	5.977644	1.992548
O	0.000000	5.977644	1.992548
O	1.992548	3.985096	1.992548
O	1.992548	5.977644	0.000000
Ag	0.000000	3.985096	3.985096
Br	1.992548	5.977644	5.977644
O	0.000000	5.977644	5.977644
O	1.992548	3.985096	5.977644
O	1.992548	5.977644	3.985096
Ag	3.985096	0.000000	0.000000
Br	5.977644	1.992548	1.992548
O	3.985096	1.992548	1.992548
O	5.977644	0.000000	1.992548
O	5.977644	1.992548	0.000000
Ag	3.985096	0.000000	3.985096
Br	5.977644	1.992548	5.977644
O	3.985096	1.992548	5.977644
O	5.977644	0.000000	5.977644
O	5.977644	1.992548	3.985096
Ag	3.985096	3.985096	0.000000
Br	5.977644	5.977644	1.992548
O	3.985096	5.977644	1.992548
O	5.977644	3.985096	1.992548
O	5.977644	5.977644	0.000000
Ag	3.985096	3.985096	3.985096
Br	5.977644	5.977644	5.977644
O	3.985096	5.977644	5.977644
O	5.977644	3.985096	5.977644
O	5.977644	5.977644	3.985096
