40

Br	0.000000	0.000000	0.000000
F	1.912078	1.912078	1.912078
O	0.000000	1.912078	1.912078
O	1.912078	0.000000	1.912078
O	1.912078	1.912078	0.000000
Br	0.000000	0.000000	3.824157
F	1.912078	1.912078	5.736235
O	0.000000	1.912078	5.736235
O	1.912078	0.000000	5.736235
O	1.912078	1.912078	3.824157
Br	0.000000	3.824157	0.000000
F	1.912078	5.736235	1.912078
O	0.000000	5.736235	1.912078
O	1.912078	3.824157	1.912078
O	1.912078	5.736235	0.000000
Br	0.000000	3.824157	3.824157
F	1.912078	5.736235	5.736235
O	0.000000	5.736235	5.736235
O	1.912078	3.824157	5.736235
O	1.912078	5.736235	3.824157
Br	3.824157	0.000000	0.000000
F	5.736235	1.912078	1.912078
O	3.824157	1.912078	1.912078
O	5.736235	0.000000	1.912078
O	5.736235	1.912078	0.000000
Br	3.824157	0.000000	3.824157
F	5.736235	1.912078	5.736235
O	3.824157	1.912078	5.736235
O	5.736235	0.000000	5.736235
O	5.736235	1.912078	3.824157
Br	3.824157	3.824157	0.000000
F	5.736235	5.736235	1.912078
O	3.824157	5.736235	1.912078
O	5.736235	3.824157	1.912078
O	5.736235	5.736235	0.000000
Br	3.824157	3.824157	3.824157
F	5.736235	5.736235	5.736235
O	3.824157	5.736235	5.736235
O	5.736235	3.824157	5.736235
O	5.736235	5.736235	3.824157
