40

O	2.263129	2.263129	0.000000
O	2.263129	0.000000	2.263129
O	0.000000	2.263129	2.263129
Pa	0.000000	0.000000	0.000000
Pr	2.263129	2.263129	2.263129
O	2.263129	2.263129	4.526257
O	2.263129	0.000000	6.789386
O	0.000000	2.263129	6.789386
Pa	0.000000	0.000000	4.526257
Pr	2.263129	2.263129	6.789386
O	2.263129	6.789386	0.000000
O	2.263129	4.526257	2.263129
O	0.000000	6.789386	2.263129
Pa	0.000000	4.526257	0.000000
Pr	2.263129	6.789386	2.263129
O	2.263129	6.789386	4.526257
O	2.263129	4.526257	6.789386
O	0.000000	6.789386	6.789386
Pa	0.000000	4.526257	4.526257
Pr	2.263129	6.789386	6.789386
O	6.789386	2.263129	0.000000
O	6.789386	0.000000	2.263129
O	4.526257	2.263129	2.263129
Pa	4.526257	0.000000	0.000000
Pr	6.789386	2.263129	2.263129
O	6.789386	2.263129	4.526257
O	6.789386	0.000000	6.789386
O	4.526257	2.263129	6.789386
Pa	4.526257	0.000000	4.526257
Pr	6.789386	2.263129	6.789386
O	6.789386	6.789386	0.000000
O	6.789386	4.526257	2.263129
O	4.526257	6.789386	2.263129
Pa	4.526257	4.526257	0.000000
Pr	6.789386	6.789386	2.263129
O	6.789386	6.789386	4.526257
O	6.789386	4.526257	6.789386
O	4.526257	6.789386	6.789386
Pa	4.526257	4.526257	4.526257
Pr	6.789386	6.789386	6.789386
