40

In	2.061174	2.061174	2.061174
O	2.061174	2.061174	0.000000
O	2.061174	0.000000	2.061174
O	0.000000	2.061174	2.061174
U	0.000000	0.000000	0.000000
In	2.061174	2.061174	6.183519
O	2.061174	2.061174	4.122346
O	2.061174	0.000000	6.183519
O	0.000000	2.061174	6.183519
U	0.000000	0.000000	4.122346
In	2.061174	6.183519	2.061174
O	2.061174	6.183519	0.000000
O	2.061174	4.122346	2.061174
O	0.000000	6.183519	2.061174
U	0.000000	4.122346	0.000000
In	2.061174	6.183519	6.183519
O	2.061174	6.183519	4.122346
O	2.061174	4.122346	6.183519
O	0.000000	6.183519	6.183519
U	0.000000	4.122346	4.122346
In	6.183519	2.061174	2.061174
O	6.183519	2.061174	0.000000
O	6.183519	0.000000	2.061174
O	4.122346	2.061174	2.061174
U	4.122346	0.000000	0.000000
In	6.183519	2.061174	6.183519
O	6.183519	2.061174	4.122346
O	6.183519	0.000000	6.183519
O	4.122346	2.061174	6.183519
U	4.122346	0.000000	4.122346
In	6.183519	6.183519	2.061174
O	6.183519	6.183519	0.000000
O	6.183519	4.122346	2.061174
O	4.122346	6.183519	2.061174
U	4.122346	4.122346	0.000000
In	6.183519	6.183519	6.183519
O	6.183519	6.183519	4.122346
O	6.183519	4.122346	6.183519
O	4.122346	6.183519	6.183519
U	4.122346	4.122346	4.122346
