40

Ce	2.259869	2.259869	2.259869
O	2.259869	2.259869	0.000000
O	0.000000	2.259869	2.259869
O	2.259869	0.000000	2.259869
Tm	0.000000	0.000000	0.000000
Ce	2.259869	2.259869	6.779616
O	2.259869	2.259869	4.519747
O	0.000000	2.259869	6.779616
O	2.259869	0.000000	6.779616
Tm	0.000000	0.000000	4.519747
Ce	2.259869	6.779616	2.259869
O	2.259869	6.779616	0.000000
O	0.000000	6.779616	2.259869
O	2.259869	4.519747	2.259869
Tm	0.000000	4.519747	0.000000
Ce	2.259869	6.779616	6.779616
O	2.259869	6.779616	4.519747
O	0.000000	6.779616	6.779616
O	2.259869	4.519747	6.779616
Tm	0.000000	4.519747	4.519747
Ce	6.779616	2.259869	2.259869
O	6.779616	2.259869	0.000000
O	4.519747	2.259869	2.259869
O	6.779616	0.000000	2.259869
Tm	4.519747	0.000000	0.000000
Ce	6.779616	2.259869	6.779616
O	6.779616	2.259869	4.519747
O	4.519747	2.259869	6.779616
O	6.779616	0.000000	6.779616
Tm	4.519747	0.000000	4.519747
Ce	6.779616	6.779616	2.259869
O	6.779616	6.779616	0.000000
O	4.519747	6.779616	2.259869
O	6.779616	4.519747	2.259869
Tm	4.519747	4.519747	0.000000
Ce	6.779616	6.779616	6.779616
O	6.779616	6.779616	4.519747
O	4.519747	6.779616	6.779616
O	6.779616	4.519747	6.779616
Tm	4.519747	4.519747	4.519747
