112

Ge	0.000000	0.000000	0.000000
Ge	2.221220	-2.221635	-2.221635
Na	-1.110615	-1.110818	-3.332443
Na	1.110615	1.110818	-3.332443
Na	5.553066	-1.110818	-1.110818
Na	3.331845	1.110818	-1.110818
O	1.018791	1.019381	-1.019381
O	-1.202439	1.202264	-3.241006
O	3.240021	-1.202264	-1.202264
O	1.202439	-1.202264	-3.241006
O	1.018791	3.423899	-3.423899
O	3.423659	3.423899	-1.019381
O	3.423659	1.019381	-3.423899
O	5.644890	1.202264	-1.202264
Ge	4.442453	4.443266	0.000000
Ge	6.663674	2.221630	-2.221635
Na	3.331838	3.332448	-3.332443
Na	5.553069	5.554083	-3.332443
Na	9.995519	3.332448	-1.110818
Na	7.774299	5.554083	-1.110818
O	5.461245	5.462647	-1.019381
O	3.240014	5.645530	-3.241006
O	7.682475	3.241002	-1.202264
O	5.644893	3.241002	-3.241006
O	5.461245	7.867165	-3.423899
O	7.866113	7.867165	-1.019381
O	7.866113	5.462647	-3.423899
O	10.087343	5.645530	-1.202264
Ge	-4.442453	0.000000	-4.443266
Ge	-2.221233	-2.221635	-6.664901
Na	-5.553069	-1.110818	-7.775708
Na	-3.331838	1.110818	-7.775708
Na	1.110612	-1.110818	-5.554083
Na	-1.110608	1.110818	-5.554083
O	-3.423662	1.019381	-5.462647
O	-5.644893	1.202264	-7.684272
O	-1.202432	-1.202264	-5.645530
O	-3.240014	-1.202264	-7.684272
O	-3.423662	3.423899	-7.867165
O	-1.018794	3.423899	-5.462647
O	-1.018794	1.019381	-7.867165
O	1.202436	1.202264	-5.645530
Ge	0.000000	4.443266	-4.443266
Ge	2.221220	2.221630	-6.664901
Na	-1.110615	3.332448	-7.775708
Na	1.110615	5.554083	-7.775708
Na	5.553066	3.332448	-5.554083
Na	3.331845	5.554083	-5.554083
O	1.018791	5.462647	-5.462647
O	-1.202439	5.645530	-7.684272
O	3.240021	3.241002	-5.645530
O	1.202439	3.241002	-7.684272
O	1.018791	7.867165	-7.867165
O	3.423659	7.867165	-5.462647
O	3.423659	5.462647	-7.867165
O	5.644890	5.645530	-5.645530
Ge	4.442453	-4.443266	0.000000
Ge	6.663674	-6.664901	-2.221635
Na	3.331838	-5.554083	-3.332443
Na	5.553069	-3.332448	-3.332443
Na	9.995519	-5.554083	-1.110818
Na	7.774299	-3.332448	-1.110818
O	5.461245	-3.423885	-1.019381
O	3.240014	-3.241002	-3.241006
O	7.682475	-5.645530	-1.202264
O	5.644893	-5.645530	-3.241006
O	5.461245	-1.019367	-3.423899
O	7.866113	-1.019367	-1.019381
O	7.866113	-3.423885	-3.423899
O	10.087343	-3.241002	-1.202264
Ge	8.884907	0.000000	0.000000
Ge	11.106127	-2.221635	-2.221635
Na	7.774292	-1.110818	-3.332443
Na	9.995522	1.110818	-3.332443
Na	14.437973	-1.110818	-1.110818
Na	12.216752	1.110818	-1.110818
O	9.903698	1.019381	-1.019381
O	7.682468	1.202264	-3.241006
O	12.124928	-1.202264	-1.202264
O	10.087346	-1.202264	-3.241006
O	9.903698	3.423899	-3.423899
O	12.308566	3.423899	-1.019381
O	12.308566	1.019381	-3.423899
O	14.529797	1.202264	-1.202264
Ge	0.000000	-4.443266	-4.443266
Ge	2.221220	-6.664901	-6.664901
Na	-1.110615	-5.554083	-7.775708
Na	1.110615	-3.332448	-7.775708
Na	5.553066	-5.554083	-5.554083
Na	3.331845	-3.332448	-5.554083
O	1.018791	-3.423885	-5.462647
O	-1.202439	-3.241002	-7.684272
O	3.240021	-5.645530	-5.645530
O	1.202439	-5.645530	-7.684272
O	1.018791	-1.019367	-7.867165
O	3.423659	-1.019367	-5.462647
O	3.423659	-3.423885	-7.867165
O	5.644890	-3.241002	-5.645530
Ge	4.442453	0.000000	-4.443266
Ge	6.663674	-2.221635	-6.664901
Na	3.331838	-1.110818	-7.775708
Na	5.553069	1.110818	-7.775708
Na	9.995519	-1.110818	-5.554083
Na	7.774299	1.110818	-5.554083
O	5.461245	1.019381	-5.462647
O	3.240014	1.202264	-7.684272
O	7.682475	-1.202264	-5.645530
O	5.644893	-1.202264	-7.684272
O	5.461245	3.423899	-7.867165
O	7.866113	3.423899	-5.462647
O	7.866113	1.019381	-7.867165
O	10.087343	1.202264	-5.645530
