40

B	0.000000	0.000000	0.000000
Ca	2.198886	2.198886	2.198886
O	2.198886	2.198886	0.000000
O	2.198886	0.000000	2.198886
O	0.000000	2.198886	2.198886
B	0.000000	0.000000	4.397773
Ca	2.198886	2.198886	6.596659
O	2.198886	2.198886	4.397773
O	2.198886	0.000000	6.596659
O	0.000000	2.198886	6.596659
B	0.000000	4.397773	0.000000
Ca	2.198886	6.596659	2.198886
O	2.198886	6.596659	0.000000
O	2.198886	4.397773	2.198886
O	0.000000	6.596659	2.198886
B	0.000000	4.397773	4.397773
Ca	2.198886	6.596659	6.596659
O	2.198886	6.596659	4.397773
O	2.198886	4.397773	6.596659
O	0.000000	6.596659	6.596659
B	4.397773	0.000000	0.000000
Ca	6.596659	2.198886	2.198886
O	6.596659	2.198886	0.000000
O	6.596659	0.000000	2.198886
O	4.397773	2.198886	2.198886
B	4.397773	0.000000	4.397773
Ca	6.596659	2.198886	6.596659
O	6.596659	2.198886	4.397773
O	6.596659	0.000000	6.596659
O	4.397773	2.198886	6.596659
B	4.397773	4.397773	0.000000
Ca	6.596659	6.596659	2.198886
O	6.596659	6.596659	0.000000
O	6.596659	4.397773	2.198886
O	4.397773	6.596659	2.198886
B	4.397773	4.397773	4.397773
Ca	6.596659	6.596659	6.596659
O	6.596659	6.596659	4.397773
O	6.596659	4.397773	6.596659
O	4.397773	6.596659	6.596659
