40

Ba	0.000000	0.000000	0.000000
Ge	1.974380	1.974380	1.974380
O	1.974380	0.000000	1.974380
O	0.000000	1.974380	1.974380
O	1.974380	1.974380	0.000000
Ba	0.000000	0.000000	3.948765
Ge	1.974380	1.974380	5.923145
O	1.974380	0.000000	5.923145
O	0.000000	1.974380	5.923145
O	1.974380	1.974380	3.948765
Ba	0.000000	3.948765	0.000000
Ge	1.974380	5.923145	1.974380
O	1.974380	3.948765	1.974380
O	0.000000	5.923145	1.974380
O	1.974380	5.923145	0.000000
Ba	0.000000	3.948765	3.948765
Ge	1.974380	5.923145	5.923145
O	1.974380	3.948765	5.923145
O	0.000000	5.923145	5.923145
O	1.974380	5.923145	3.948765
Ba	3.948765	0.000000	0.000000
Ge	5.923145	1.974380	1.974380
O	5.923145	0.000000	1.974380
O	3.948765	1.974380	1.974380
O	5.923145	1.974380	0.000000
Ba	3.948765	0.000000	3.948765
Ge	5.923145	1.974380	5.923145
O	5.923145	0.000000	5.923145
O	3.948765	1.974380	5.923145
O	5.923145	1.974380	3.948765
Ba	3.948765	3.948765	0.000000
Ge	5.923145	5.923145	1.974380
O	5.923145	3.948765	1.974380
O	3.948765	5.923145	1.974380
O	5.923145	5.923145	0.000000
Ba	3.948765	3.948765	3.948765
Ge	5.923145	5.923145	5.923145
O	5.923145	3.948765	5.923145
O	3.948765	5.923145	5.923145
O	5.923145	5.923145	3.948765
