40

O	1.928600	1.928600	0.000000
O	0.000000	1.928600	1.928600
O	1.928600	0.000000	1.928600
Th	0.000000	0.000000	0.000000
V	1.928600	1.928600	1.928600
O	1.928600	1.928600	3.857208
O	0.000000	1.928600	5.785807
O	1.928600	0.000000	5.785807
Th	0.000000	0.000000	3.857208
V	1.928600	1.928600	5.785807
O	1.928600	5.785807	0.000000
O	0.000000	5.785807	1.928600
O	1.928600	3.857208	1.928600
Th	0.000000	3.857208	0.000000
V	1.928600	5.785807	1.928600
O	1.928600	5.785807	3.857208
O	0.000000	5.785807	5.785807
O	1.928600	3.857208	5.785807
Th	0.000000	3.857208	3.857208
V	1.928600	5.785807	5.785807
O	5.785807	1.928600	0.000000
O	3.857208	1.928600	1.928600
O	5.785807	0.000000	1.928600
Th	3.857208	0.000000	0.000000
V	5.785807	1.928600	1.928600
O	5.785807	1.928600	3.857208
O	3.857208	1.928600	5.785807
O	5.785807	0.000000	5.785807
Th	3.857208	0.000000	3.857208
V	5.785807	1.928600	5.785807
O	5.785807	5.785807	0.000000
O	3.857208	5.785807	1.928600
O	5.785807	3.857208	1.928600
Th	3.857208	3.857208	0.000000
V	5.785807	5.785807	1.928600
O	5.785807	5.785807	3.857208
O	3.857208	5.785807	5.785807
O	5.785807	3.857208	5.785807
Th	3.857208	3.857208	3.857208
V	5.785807	5.785807	5.785807
