112

O	5.504542	3.892299	9.534146
O	1.892746	1.338373	6.331026
O	2.773983	3.830888	4.804679
O	4.536457	1.338373	4.804679
O	4.623305	1.399784	8.007799
O	2.860831	3.892299	8.007799
O	1.892746	1.338373	3.278332
O	5.504542	3.892299	6.481452
Mg	0.924661	0.653834	1.601560
Mg	6.472627	4.576838	11.210918
In	3.698644	2.615336	3.203120
In	3.698644	2.615336	6.406239
In	0.924661	2.615336	4.804679
In	2.773983	0.000000	4.804679
O	5.504542	3.892299	15.940385
O	1.892746	1.338373	12.737266
O	2.773983	3.830888	11.210918
O	4.536457	1.338373	11.210918
O	4.623305	1.399784	14.414038
O	2.860831	3.892299	14.414038
O	1.892746	1.338373	9.684571
O	5.504542	3.892299	12.887691
Mg	0.924661	0.653834	8.007799
Mg	6.472627	4.576838	17.617158
In	3.698644	2.615336	9.609359
In	3.698644	2.615336	12.812478
In	0.924661	2.615336	11.210918
In	2.773983	0.000000	11.210918
O	7.353864	9.122971	12.737266
O	3.742068	6.569046	9.534146
O	4.623305	9.061560	8.007799
O	6.385779	6.569046	8.007799
O	6.472627	6.630457	11.210918
O	4.710153	9.122971	11.210918
O	3.742068	6.569046	6.481452
O	7.353864	9.122971	9.684571
Mg	2.773983	5.884506	4.804679
Mg	8.321949	9.807511	14.414038
In	5.547966	7.846008	6.406239
In	5.547966	7.846008	9.609359
In	2.773983	7.846008	8.007799
In	4.623305	5.230672	8.007799
O	7.353864	9.122971	19.143505
O	3.742068	6.569046	15.940385
O	4.623305	9.061560	14.414038
O	6.385779	6.569046	14.414038
O	6.472627	6.630457	17.617158
O	4.710153	9.122971	17.617158
O	3.742068	6.569046	12.887691
O	7.353864	9.122971	16.090810
Mg	2.773983	5.884506	11.210918
Mg	8.321949	9.807511	20.820277
In	5.547966	7.846008	12.812478
In	5.547966	7.846008	16.015598
In	2.773983	7.846008	14.414038
In	4.623305	5.230672	14.414038
O	11.052508	3.892299	12.737266
O	7.440712	1.338373	9.534146
O	8.321949	3.830888	8.007799
O	10.084423	1.338373	8.007799
O	10.171271	1.399784	11.210918
O	8.408797	3.892299	11.210918
O	7.440712	1.338373	6.481452
O	11.052508	3.892299	9.684571
Mg	6.472627	0.653834	4.804679
Mg	12.020593	4.576838	14.414038
In	9.246610	2.615336	6.406239
In	9.246610	2.615336	9.609359
In	6.472627	2.615336	8.007799
In	8.321949	0.000000	8.007799
O	11.052508	3.892299	19.143505
O	7.440712	1.338373	15.940385
O	8.321949	3.830888	14.414038
O	10.084423	1.338373	14.414038
O	10.171271	1.399784	17.617158
O	8.408797	3.892299	17.617158
O	7.440712	1.338373	12.887691
O	11.052508	3.892299	16.090810
Mg	6.472627	0.653834	11.210918
Mg	12.020593	4.576838	20.820277
In	9.246610	2.615336	12.812478
In	9.246610	2.615336	16.015598
In	6.472627	2.615336	14.414038
In	8.321949	0.000000	14.414038
O	12.901830	9.122971	15.940385
O	9.290034	6.569046	12.737266
O	10.171271	9.061560	11.210918
O	11.933745	6.569046	11.210918
O	12.020593	6.630457	14.414038
O	10.258119	9.122971	14.414038
O	9.290034	6.569046	9.684571
O	12.901830	9.122971	12.887691
Mg	8.321949	5.884506	8.007799
Mg	13.869915	9.807511	17.617158
In	11.095932	7.846008	9.609359
In	11.095932	7.846008	12.812478
In	8.321949	7.846008	11.210918
In	10.171271	5.230672	11.210918
O	12.901830	9.122971	22.346624
O	9.290034	6.569046	19.143505
O	10.171271	9.061560	17.617158
O	11.933745	6.569046	17.617158
O	12.020593	6.630457	20.820277
O	10.258119	9.122971	20.820277
O	9.290034	6.569046	16.090810
O	12.901830	9.122971	19.293930
Mg	8.321949	5.884506	14.414038
Mg	13.869915	9.807511	24.023397
In	11.095932	7.846008	16.015598
In	11.095932	7.846008	19.218717
In	8.321949	7.846008	17.617158
In	10.171271	5.230672	17.617158
