40

Ag	0.000000	0.000000	0.000000
Dy_3	2.157240	2.157240	2.157240
O	2.157240	0.000000	2.157240
O	0.000000	2.157240	2.157240
O	2.157240	2.157240	0.000000
Ag	0.000000	0.000000	4.314485
Dy_3	2.157240	2.157240	6.471725
O	2.157240	0.000000	6.471725
O	0.000000	2.157240	6.471725
O	2.157240	2.157240	4.314485
Ag	0.000000	4.314485	0.000000
Dy_3	2.157240	6.471725	2.157240
O	2.157240	4.314485	2.157240
O	0.000000	6.471725	2.157240
O	2.157240	6.471725	0.000000
Ag	0.000000	4.314485	4.314485
Dy_3	2.157240	6.471725	6.471725
O	2.157240	4.314485	6.471725
O	0.000000	6.471725	6.471725
O	2.157240	6.471725	4.314485
Ag	4.314485	0.000000	0.000000
Dy_3	6.471725	2.157240	2.157240
O	6.471725	0.000000	2.157240
O	4.314485	2.157240	2.157240
O	6.471725	2.157240	0.000000
Ag	4.314485	0.000000	4.314485
Dy_3	6.471725	2.157240	6.471725
O	6.471725	0.000000	6.471725
O	4.314485	2.157240	6.471725
O	6.471725	2.157240	4.314485
Ag	4.314485	4.314485	0.000000
Dy_3	6.471725	6.471725	2.157240
O	6.471725	4.314485	2.157240
O	4.314485	6.471725	2.157240
O	6.471725	6.471725	0.000000
Ag	4.314485	4.314485	4.314485
Dy_3	6.471725	6.471725	6.471725
O	6.471725	4.314485	6.471725
O	4.314485	6.471725	6.471725
O	6.471725	6.471725	4.314485
