40

Ho	0.000000	0.000000	0.000000
In	2.048107	2.048107	2.048107
O	0.000000	2.048107	2.048107
O	2.048107	0.000000	2.048107
O	2.048107	2.048107	0.000000
Ho	0.000000	0.000000	4.096213
In	2.048107	2.048107	6.144320
O	0.000000	2.048107	6.144320
O	2.048107	0.000000	6.144320
O	2.048107	2.048107	4.096213
Ho	0.000000	4.096213	0.000000
In	2.048107	6.144320	2.048107
O	0.000000	6.144320	2.048107
O	2.048107	4.096213	2.048107
O	2.048107	6.144320	0.000000
Ho	0.000000	4.096213	4.096213
In	2.048107	6.144320	6.144320
O	0.000000	6.144320	6.144320
O	2.048107	4.096213	6.144320
O	2.048107	6.144320	4.096213
Ho	4.096213	0.000000	0.000000
In	6.144320	2.048107	2.048107
O	4.096213	2.048107	2.048107
O	6.144320	0.000000	2.048107
O	6.144320	2.048107	0.000000
Ho	4.096213	0.000000	4.096213
In	6.144320	2.048107	6.144320
O	4.096213	2.048107	6.144320
O	6.144320	0.000000	6.144320
O	6.144320	2.048107	4.096213
Ho	4.096213	4.096213	0.000000
In	6.144320	6.144320	2.048107
O	4.096213	6.144320	2.048107
O	6.144320	4.096213	2.048107
O	6.144320	6.144320	0.000000
Ho	4.096213	4.096213	4.096213
In	6.144320	6.144320	6.144320
O	4.096213	6.144320	6.144320
O	6.144320	4.096213	6.144320
O	6.144320	6.144320	4.096213
