40

Ho	0.000000	0.000000	0.000000
In	2.048568	2.048568	2.048568
O	0.000000	2.048568	2.048568
O	2.048568	0.000000	2.048568
O	2.048568	2.048568	0.000000
Ho	0.000000	0.000000	4.097136
In	2.048568	2.048568	6.145704
O	0.000000	2.048568	6.145704
O	2.048568	0.000000	6.145704
O	2.048568	2.048568	4.097136
Ho	0.000000	4.097136	0.000000
In	2.048568	6.145704	2.048568
O	0.000000	6.145704	2.048568
O	2.048568	4.097136	2.048568
O	2.048568	6.145704	0.000000
Ho	0.000000	4.097136	4.097136
In	2.048568	6.145704	6.145704
O	0.000000	6.145704	6.145704
O	2.048568	4.097136	6.145704
O	2.048568	6.145704	4.097136
Ho	4.097136	0.000000	0.000000
In	6.145704	2.048568	2.048568
O	4.097136	2.048568	2.048568
O	6.145704	0.000000	2.048568
O	6.145704	2.048568	0.000000
Ho	4.097136	0.000000	4.097136
In	6.145704	2.048568	6.145704
O	4.097136	2.048568	6.145704
O	6.145704	0.000000	6.145704
O	6.145704	2.048568	4.097136
Ho	4.097136	4.097136	0.000000
In	6.145704	6.145704	2.048568
O	4.097136	6.145704	2.048568
O	6.145704	4.097136	2.048568
O	6.145704	6.145704	0.000000
Ho	4.097136	4.097136	4.097136
In	6.145704	6.145704	6.145704
O	4.097136	6.145704	6.145704
O	6.145704	4.097136	6.145704
O	6.145704	6.145704	4.097136
