40

Cd	2.081588	2.081588	2.081588
O	2.081588	2.081588	0.000000
O	2.081588	0.000000	2.081588
O	0.000000	2.081588	2.081588
Sb	0.000000	0.000000	0.000000
Cd	2.081588	2.081588	6.244764
O	2.081588	2.081588	4.163176
O	2.081588	0.000000	6.244764
O	0.000000	2.081588	6.244764
Sb	0.000000	0.000000	4.163176
Cd	2.081588	6.244764	2.081588
O	2.081588	6.244764	0.000000
O	2.081588	4.163176	2.081588
O	0.000000	6.244764	2.081588
Sb	0.000000	4.163176	0.000000
Cd	2.081588	6.244764	6.244764
O	2.081588	6.244764	4.163176
O	2.081588	4.163176	6.244764
O	0.000000	6.244764	6.244764
Sb	0.000000	4.163176	4.163176
Cd	6.244764	2.081588	2.081588
O	6.244764	2.081588	0.000000
O	6.244764	0.000000	2.081588
O	4.163176	2.081588	2.081588
Sb	4.163176	0.000000	0.000000
Cd	6.244764	2.081588	6.244764
O	6.244764	2.081588	4.163176
O	6.244764	0.000000	6.244764
O	4.163176	2.081588	6.244764
Sb	4.163176	0.000000	4.163176
Cd	6.244764	6.244764	2.081588
O	6.244764	6.244764	0.000000
O	6.244764	4.163176	2.081588
O	4.163176	6.244764	2.081588
Sb	4.163176	4.163176	0.000000
Cd	6.244764	6.244764	6.244764
O	6.244764	6.244764	4.163176
O	6.244764	4.163176	6.244764
O	4.163176	6.244764	6.244764
Sb	4.163176	4.163176	4.163176
