112

Cs	0.000000	0.000000	0.000000
Cs	2.431384	-2.432159	-2.432159
Hf	-1.215692	-1.216079	-3.648238
Hf	3.647077	1.216079	-1.216079
Hf	6.078461	-1.216079	-1.216079
Hf	1.215692	1.216079	-3.648238
O	3.930248	-0.932351	-0.932351
O	-0.932521	0.932351	-3.931967
O	0.932521	-0.932351	-3.931967
O	1.498864	1.499808	-1.499808
O	5.795289	0.932351	-0.932351
O	1.498864	3.364510	-3.364510
O	3.363905	3.364510	-1.499808
O	3.363905	1.499808	-3.364510
Cs	4.862769	4.864318	0.000000
Cs	7.294153	2.432159	-2.432159
Hf	3.647077	3.648238	-3.648238
Hf	8.509845	6.080397	-1.216079
Hf	10.941230	3.648238	-1.216079
Hf	6.078461	6.080397	-3.648238
O	8.793017	3.931967	-0.932351
O	3.930248	5.796669	-3.931967
O	5.795289	3.931967	-3.931967
O	6.361633	6.364126	-1.499808
O	10.658058	5.796669	-0.932351
O	6.361633	8.228828	-3.364510
O	8.226674	8.228828	-1.499808
O	8.226674	6.364126	-3.364510
Cs	-4.862769	0.000000	-4.864318
Cs	-2.431384	-2.432159	-7.296477
Hf	-6.078461	-1.216079	-8.512556
Hf	-1.215692	1.216079	-6.080397
Hf	1.215692	-1.216079	-6.080397
Hf	-3.647077	1.216079	-8.512556
O	-0.932521	-0.932351	-5.796669
O	-5.795289	0.932351	-8.796285
O	-3.930248	-0.932351	-8.796285
O	-3.363905	1.499808	-6.364126
O	0.932521	0.932351	-5.796669
O	-3.363905	3.364510	-8.228828
O	-1.498864	3.364510	-6.364126
O	-1.498864	1.499808	-8.228828
Cs	0.000000	4.864318	-4.864318
Cs	2.431384	2.432159	-7.296477
Hf	-1.215692	3.648238	-8.512556
Hf	3.647077	6.080397	-6.080397
Hf	6.078461	3.648238	-6.080397
Hf	1.215692	6.080397	-8.512556
O	3.930248	3.931967	-5.796669
O	-0.932521	5.796669	-8.796285
O	0.932521	3.931967	-8.796285
O	1.498864	6.364126	-6.364126
O	5.795289	5.796669	-5.796669
O	1.498864	8.228828	-8.228828
O	3.363905	8.228828	-6.364126
O	3.363905	6.364126	-8.228828
Cs	4.862769	-4.864318	0.000000
Cs	7.294153	-7.296477	-2.432159
Hf	3.647077	-6.080397	-3.648238
Hf	8.509845	-3.648238	-1.216079
Hf	10.941230	-6.080397	-1.216079
Hf	6.078461	-3.648238	-3.648238
O	8.793017	-5.796669	-0.932351
O	3.930248	-3.931967	-3.931967
O	5.795289	-5.796669	-3.931967
O	6.361633	-3.364510	-1.499808
O	10.658058	-3.931967	-0.932351
O	6.361633	-1.499808	-3.364510
O	8.226674	-1.499808	-1.499808
O	8.226674	-3.364510	-3.364510
Cs	9.725537	0.000000	0.000000
Cs	12.156922	-2.432159	-2.432159
Hf	8.509845	-1.216079	-3.648238
Hf	13.372614	1.216079	-1.216079
Hf	15.803998	-1.216079	-1.216079
Hf	10.941230	1.216079	-3.648238
O	13.655786	-0.932351	-0.932351
O	8.793017	0.932351	-3.931967
O	10.658058	-0.932351	-3.931967
O	11.224401	1.499808	-1.499808
O	15.520827	0.932351	-0.932351
O	11.224401	3.364510	-3.364510
O	13.089442	3.364510	-1.499808
O	13.089442	1.499808	-3.364510
Cs	0.000000	-4.864318	-4.864318
Cs	2.431384	-7.296477	-7.296477
Hf	-1.215692	-6.080397	-8.512556
Hf	3.647077	-3.648238	-6.080397
Hf	6.078461	-6.080397	-6.080397
Hf	1.215692	-3.648238	-8.512556
O	3.930248	-5.796669	-5.796669
O	-0.932521	-3.931967	-8.796285
O	0.932521	-5.796669	-8.796285
O	1.498864	-3.364510	-6.364126
O	5.795289	-3.931967	-5.796669
O	1.498864	-1.499808	-8.228828
O	3.363905	-1.499808	-6.364126
O	3.363905	-3.364510	-8.228828
Cs	4.862769	0.000000	-4.864318
Cs	7.294153	-2.432159	-7.296477
Hf	3.647077	-1.216079	-8.512556
Hf	8.509845	1.216079	-6.080397
Hf	10.941230	-1.216079	-6.080397
Hf	6.078461	1.216079	-8.512556
O	8.793017	-0.932351	-5.796669
O	3.930248	0.932351	-8.796285
O	5.795289	-0.932351	-8.796285
O	6.361633	1.499808	-6.364126
O	10.658058	0.932351	-5.796669
O	6.361633	3.364510	-8.228828
O	8.226674	3.364510	-6.364126
O	8.226674	1.499808	-8.228828
