112

O	3.050453	-1.167255	-1.167255
O	-1.166879	1.167255	-3.051519
O	1.166879	-1.167255	-3.051519
O	0.941787	0.942132	-0.942132
O	5.384210	1.167255	-1.167255
O	0.941787	3.276642	-3.276642
O	3.275545	3.276642	-0.942132
O	3.275545	0.942132	-3.276642
Si	0.000000	0.000000	0.000000
Si	2.108666	-2.109387	-2.109387
W	-1.054333	-1.054694	-3.164081
W	3.162999	1.054694	-1.054694
W	5.271665	-1.054694	-1.054694
W	1.054333	1.054694	-3.164081
O	7.267785	3.051519	-1.167255
O	3.050453	5.386029	-3.051519
O	5.384210	3.051519	-3.051519
O	5.159119	5.160907	-0.942132
O	9.601542	5.386029	-1.167255
O	5.159119	7.495416	-3.276642
O	7.492876	7.495416	-0.942132
O	7.492876	5.160907	-3.276642
Si	4.217332	4.218774	0.000000
Si	6.325998	2.109387	-2.109387
W	3.162999	3.164081	-3.164081
W	7.380330	5.273468	-1.054694
W	9.488996	3.164081	-1.054694
W	5.271665	5.273468	-3.164081
O	-1.166879	-1.167255	-5.386029
O	-5.384210	1.167255	-7.270294
O	-3.050453	-1.167255	-7.270294
O	-3.275545	0.942132	-5.160907
O	1.166879	1.167255	-5.386029
O	-3.275545	3.276642	-7.495416
O	-0.941787	3.276642	-5.160907
O	-0.941787	0.942132	-7.495416
Si	-4.217332	0.000000	-4.218774
Si	-2.108666	-2.109387	-6.328161
W	-5.271665	-1.054694	-7.382855
W	-1.054333	1.054694	-5.273468
W	1.054333	-1.054694	-5.273468
W	-3.162999	1.054694	-7.382855
O	3.050453	3.051519	-5.386029
O	-1.166879	5.386029	-7.270294
O	1.166879	3.051519	-7.270294
O	0.941787	5.160907	-5.160907
O	5.384210	5.386029	-5.386029
O	0.941787	7.495416	-7.495416
O	3.275545	7.495416	-5.160907
O	3.275545	5.160907	-7.495416
Si	0.000000	4.218774	-4.218774
Si	2.108666	2.109387	-6.328161
W	-1.054333	3.164081	-7.382855
W	3.162999	5.273468	-5.273468
W	5.271665	3.164081	-5.273468
W	1.054333	5.273468	-7.382855
O	7.267785	-5.386029	-1.167255
O	3.050453	-3.051519	-3.051519
O	5.384210	-5.386029	-3.051519
O	5.159119	-3.276642	-0.942132
O	9.601542	-3.051519	-1.167255
O	5.159119	-0.942132	-3.276642
O	7.492876	-0.942132	-0.942132
O	7.492876	-3.276642	-3.276642
Si	4.217332	-4.218774	0.000000
Si	6.325998	-6.328161	-2.109387
W	3.162999	-5.273468	-3.164081
W	7.380330	-3.164081	-1.054694
W	9.488996	-5.273468	-1.054694
W	5.271665	-3.164081	-3.164081
O	11.485116	-1.167255	-1.167255
O	7.267785	1.167255	-3.051519
O	9.601542	-1.167255	-3.051519
O	9.376450	0.942132	-0.942132
O	13.818874	1.167255	-1.167255
O	9.376450	3.276642	-3.276642
O	11.710208	3.276642	-0.942132
O	11.710208	0.942132	-3.276642
Si	8.434663	0.000000	0.000000
Si	10.543329	-2.109387	-2.109387
W	7.380330	-1.054694	-3.164081
W	11.597662	1.054694	-1.054694
W	13.706328	-1.054694	-1.054694
W	9.488996	1.054694	-3.164081
O	3.050453	-5.386029	-5.386029
O	-1.166879	-3.051519	-7.270294
O	1.166879	-5.386029	-7.270294
O	0.941787	-3.276642	-5.160907
O	5.384210	-3.051519	-5.386029
O	0.941787	-0.942132	-7.495416
O	3.275545	-0.942132	-5.160907
O	3.275545	-3.276642	-7.495416
Si	0.000000	-4.218774	-4.218774
Si	2.108666	-6.328161	-6.328161
W	-1.054333	-5.273468	-7.382855
W	3.162999	-3.164081	-5.273468
W	5.271665	-5.273468	-5.273468
W	1.054333	-3.164081	-7.382855
O	7.267785	-1.167255	-5.386029
O	3.050453	1.167255	-7.270294
O	5.384210	-1.167255	-7.270294
O	5.159119	0.942132	-5.160907
O	9.601542	1.167255	-5.386029
O	5.159119	3.276642	-7.495416
O	7.492876	3.276642	-5.160907
O	7.492876	0.942132	-7.495416
Si	4.217332	0.000000	-4.218774
Si	6.325998	-2.109387	-6.328161
W	3.162999	-1.054694	-7.382855
W	7.380330	1.054694	-5.273468
W	9.488996	-1.054694	-5.273468
W	5.271665	1.054694	-7.382855
