40

Cr	0.000000	0.000000	0.000000
Li	1.771180	1.771180	1.771180
O	1.771180	0.000000	1.771180
O	0.000000	1.771180	1.771180
O	1.771180	1.771180	0.000000
Cr	0.000000	0.000000	3.542364
Li	1.771180	1.771180	5.313544
O	1.771180	0.000000	5.313544
O	0.000000	1.771180	5.313544
O	1.771180	1.771180	3.542364
Cr	0.000000	3.542364	0.000000
Li	1.771180	5.313544	1.771180
O	1.771180	3.542364	1.771180
O	0.000000	5.313544	1.771180
O	1.771180	5.313544	0.000000
Cr	0.000000	3.542364	3.542364
Li	1.771180	5.313544	5.313544
O	1.771180	3.542364	5.313544
O	0.000000	5.313544	5.313544
O	1.771180	5.313544	3.542364
Cr	3.542364	0.000000	0.000000
Li	5.313544	1.771180	1.771180
O	5.313544	0.000000	1.771180
O	3.542364	1.771180	1.771180
O	5.313544	1.771180	0.000000
Cr	3.542364	0.000000	3.542364
Li	5.313544	1.771180	5.313544
O	5.313544	0.000000	5.313544
O	3.542364	1.771180	5.313544
O	5.313544	1.771180	3.542364
Cr	3.542364	3.542364	0.000000
Li	5.313544	5.313544	1.771180
O	5.313544	3.542364	1.771180
O	3.542364	5.313544	1.771180
O	5.313544	5.313544	0.000000
Cr	3.542364	3.542364	3.542364
Li	5.313544	5.313544	5.313544
O	5.313544	3.542364	5.313544
O	3.542364	5.313544	5.313544
O	5.313544	5.313544	3.542364
