40

Ba	0.000000	0.000000	0.000000
O	0.000000	1.999500	1.999500
O	1.999500	0.000000	1.999500
O	1.999500	1.999500	0.000000
Ti	1.984500	1.999500	1.999500
Ba	0.000000	0.000000	3.999000
O	0.000000	1.999500	5.998500
O	1.999500	0.000000	5.998500
O	1.999500	1.999500	3.999000
Ti	1.984500	1.999500	5.998500
Ba	0.000000	3.999000	0.000000
O	0.000000	5.998500	1.999500
O	1.999500	3.999000	1.999500
O	1.999500	5.998500	0.000000
Ti	1.984500	5.998500	1.999500
Ba	0.000000	3.999000	3.999000
O	0.000000	5.998500	5.998500
O	1.999500	3.999000	5.998500
O	1.999500	5.998500	3.999000
Ti	1.984500	5.998500	5.998500
Ba	3.999000	0.000000	0.000000
O	3.999000	1.999500	1.999500
O	5.998500	0.000000	1.999500
O	5.998500	1.999500	0.000000
Ti	5.983500	1.999500	1.999500
Ba	3.999000	0.000000	3.999000
O	3.999000	1.999500	5.998500
O	5.998500	0.000000	5.998500
O	5.998500	1.999500	3.999000
Ti	5.983500	1.999500	5.998500
Ba	3.999000	3.999000	0.000000
O	3.999000	5.998500	1.999500
O	5.998500	3.999000	1.999500
O	5.998500	5.998500	0.000000
Ti	5.983500	5.998500	1.999500
Ba	3.999000	3.999000	3.999000
O	3.999000	5.998500	5.998500
O	5.998500	3.999000	5.998500
O	5.998500	5.998500	3.999000
Ti	5.983500	5.998500	5.998500
