40

Ba	0.000000	0.000000	0.000000
O	0.000000	1.999233	1.999233
O	1.999233	0.000000	1.999233
O	1.999233	1.999233	0.000000
Ti	1.984233	1.999233	1.999233
Ba	0.000000	0.000000	3.998466
O	0.000000	1.999233	5.997698
O	1.999233	0.000000	5.997698
O	1.999233	1.999233	3.998466
Ti	1.984233	1.999233	5.997698
Ba	0.000000	3.998466	0.000000
O	0.000000	5.997698	1.999233
O	1.999233	3.998466	1.999233
O	1.999233	5.997698	0.000000
Ti	1.984233	5.997698	1.999233
Ba	0.000000	3.998466	3.998466
O	0.000000	5.997698	5.997698
O	1.999233	3.998466	5.997698
O	1.999233	5.997698	3.998466
Ti	1.984233	5.997698	5.997698
Ba	3.998466	0.000000	0.000000
O	3.998466	1.999233	1.999233
O	5.997698	0.000000	1.999233
O	5.997698	1.999233	0.000000
Ti	5.982698	1.999233	1.999233
Ba	3.998466	0.000000	3.998466
O	3.998466	1.999233	5.997698
O	5.997698	0.000000	5.997698
O	5.997698	1.999233	3.998466
Ti	5.982698	1.999233	5.997698
Ba	3.998466	3.998466	0.000000
O	3.998466	5.997698	1.999233
O	5.997698	3.998466	1.999233
O	5.997698	5.997698	0.000000
Ti	5.982698	5.997698	1.999233
Ba	3.998466	3.998466	3.998466
O	3.998466	5.997698	5.997698
O	5.997698	3.998466	5.997698
O	5.997698	5.997698	3.998466
Ti	5.982698	5.997698	5.997698
