40

Ba	2.313326	2.313326	2.313326
O	0.000000	2.313326	2.313326
O	2.313326	0.000000	2.313326
O	2.313326	2.313326	0.000000
Ti	0.000000	0.000000	0.000000
Ba	2.313326	2.313326	6.939979
O	0.000000	2.313326	6.939979
O	2.313326	0.000000	6.939979
O	2.313326	2.313326	4.626653
Ti	0.000000	0.000000	4.626653
Ba	2.313326	6.939979	2.313326
O	0.000000	6.939979	2.313326
O	2.313326	4.626653	2.313326
O	2.313326	6.939979	0.000000
Ti	0.000000	4.626653	0.000000
Ba	2.313326	6.939979	6.939979
O	0.000000	6.939979	6.939979
O	2.313326	4.626653	6.939979
O	2.313326	6.939979	4.626653
Ti	0.000000	4.626653	4.626653
Ba	6.939979	2.313326	2.313326
O	4.626653	2.313326	2.313326
O	6.939979	0.000000	2.313326
O	6.939979	2.313326	0.000000
Ti	4.626653	0.000000	0.000000
Ba	6.939979	2.313326	6.939979
O	4.626653	2.313326	6.939979
O	6.939979	0.000000	6.939979
O	6.939979	2.313326	4.626653
Ti	4.626653	0.000000	4.626653
Ba	6.939979	6.939979	2.313326
O	4.626653	6.939979	2.313326
O	6.939979	4.626653	2.313326
O	6.939979	6.939979	0.000000
Ti	4.626653	4.626653	0.000000
Ba	6.939979	6.939979	6.939979
O	4.626653	6.939979	6.939979
O	6.939979	4.626653	6.939979
O	6.939979	6.939979	4.626653
Ti	4.626653	4.626653	4.626653
