40

Ba	0.000000	0.000000	0.000000
O	0.000000	0.000000	2.263242
O	2.263446	0.000000	0.000000
O	0.000000	2.263446	0.000000
Ti	2.263446	2.263446	2.248242
Ba	0.000000	0.000000	4.526483
O	0.000000	0.000000	6.789725
O	2.263446	0.000000	4.526483
O	0.000000	2.263446	4.526483
Ti	2.263446	2.263446	6.774725
Ba	0.000000	4.526893	0.000000
O	0.000000	4.526893	2.263242
O	2.263446	4.526893	0.000000
O	0.000000	6.790339	0.000000
Ti	2.263446	6.790339	2.248242
Ba	0.000000	4.526893	4.526483
O	0.000000	4.526893	6.789725
O	2.263446	4.526893	4.526483
O	0.000000	6.790339	4.526483
Ti	2.263446	6.790339	6.774725
Ba	4.526893	0.000000	0.000000
O	4.526893	0.000000	2.263242
O	6.790339	0.000000	0.000000
O	4.526893	2.263446	0.000000
Ti	6.790339	2.263446	2.248242
Ba	4.526893	0.000000	4.526483
O	4.526893	0.000000	6.789725
O	6.790339	0.000000	4.526483
O	4.526893	2.263446	4.526483
Ti	6.790339	2.263446	6.774725
Ba	4.526893	4.526893	0.000000
O	4.526893	4.526893	2.263242
O	6.790339	4.526893	0.000000
O	4.526893	6.790339	0.000000
Ti	6.790339	6.790339	2.248242
Ba	4.526893	4.526893	4.526483
O	4.526893	4.526893	6.789725
O	6.790339	4.526893	4.526483
O	4.526893	6.790339	4.526483
Ti	6.790339	6.790339	6.774725
