40

Ba	0.000000	0.000000	0.000000
O	2.201231	0.000000	0.000000
O	0.000000	2.201231	0.000000
O	0.000000	0.000000	2.201231
Ti	2.201231	2.201231	2.201231
Ba	0.000000	0.000000	4.402462
O	2.201231	0.000000	4.402462
O	0.000000	2.201231	4.402462
O	0.000000	0.000000	6.603693
Ti	2.201231	2.201231	6.603693
Ba	0.000000	4.402462	0.000000
O	2.201231	4.402462	0.000000
O	0.000000	6.603693	0.000000
O	0.000000	4.402462	2.201231
Ti	2.201231	6.603693	2.201231
Ba	0.000000	4.402462	4.402462
O	2.201231	4.402462	4.402462
O	0.000000	6.603693	4.402462
O	0.000000	4.402462	6.603693
Ti	2.201231	6.603693	6.603693
Ba	4.402462	0.000000	0.000000
O	6.603693	0.000000	0.000000
O	4.402462	2.201231	0.000000
O	4.402462	0.000000	2.201231
Ti	6.603693	2.201231	2.201231
Ba	4.402462	0.000000	4.402462
O	6.603693	0.000000	4.402462
O	4.402462	2.201231	4.402462
O	4.402462	0.000000	6.603693
Ti	6.603693	2.201231	6.603693
Ba	4.402462	4.402462	0.000000
O	6.603693	4.402462	0.000000
O	4.402462	6.603693	0.000000
O	4.402462	4.402462	2.201231
Ti	6.603693	6.603693	2.201231
Ba	4.402462	4.402462	4.402462
O	6.603693	4.402462	4.402462
O	4.402462	6.603693	4.402462
O	4.402462	4.402462	6.603693
Ti	6.603693	6.603693	6.603693
