112

Ba	0.000000	0.000000	0.000000
Ba	2.749408	-2.750072	-2.750072
O	1.338693	1.339743	-1.339743
O	-1.410715	1.410329	-4.089814
O	4.088082	-1.410329	-1.410329
O	1.410715	-1.410329	-4.089814
O	1.338693	4.160400	-4.160400
O	4.160113	4.160400	-1.339743
O	4.160113	1.339743	-4.160400
O	6.909511	1.410329	-1.410329
Rb	-1.374704	-1.375031	-4.125102
Rb	4.124093	1.375031	-1.375031
Rb	1.374704	1.375031	-4.125102
Rb	6.873501	-1.375031	-1.375031
Ba	5.498799	5.500148	0.000000
Ba	8.248207	2.750076	-2.750072
O	6.837493	6.839891	-1.339743
O	4.088084	6.910477	-4.089814
O	9.586881	4.089819	-1.410329
O	6.909514	4.089819	-4.089814
O	6.837493	9.660548	-4.160400
O	9.658912	9.660548	-1.339743
O	9.658912	6.839891	-4.160400
O	12.408311	6.910477	-1.410329
Rb	4.124095	4.125117	-4.125102
Rb	9.622892	6.875179	-1.375031
Rb	6.873503	6.875179	-4.125102
Rb	12.372300	4.125117	-1.375031
Ba	-5.498799	0.000000	-5.500148
Ba	-2.749391	-2.750072	-8.250219
O	-4.160106	1.339743	-6.839891
O	-6.909514	1.410329	-9.589962
O	-1.410717	-1.410329	-6.910477
O	-4.088084	-1.410329	-9.589962
O	-4.160106	4.160400	-9.660548
O	-1.338686	4.160400	-6.839891
O	-1.338686	1.339743	-9.660548
O	1.410712	1.410329	-6.910477
Rb	-6.873503	-1.375031	-9.625250
Rb	-1.374707	1.375031	-6.875179
Rb	-4.124095	1.375031	-9.625250
Rb	1.374702	-1.375031	-6.875179
Ba	0.000000	5.500148	-5.500148
Ba	2.749408	2.750076	-8.250219
O	1.338693	6.839891	-6.839891
O	-1.410715	6.910477	-9.589962
O	4.088082	4.089819	-6.910477
O	1.410715	4.089819	-9.589962
O	1.338693	9.660548	-9.660548
O	4.160113	9.660548	-6.839891
O	4.160113	6.839891	-9.660548
O	6.909511	6.910477	-6.910477
Rb	-1.374704	4.125117	-9.625250
Rb	4.124093	6.875179	-6.875179
Rb	1.374704	6.875179	-9.625250
Rb	6.873501	4.125117	-6.875179
Ba	5.498799	-5.500148	0.000000
Ba	8.248207	-8.250220	-2.750072
O	6.837493	-4.160405	-1.339743
O	4.088084	-4.089819	-4.089814
O	9.586881	-6.910477	-1.410329
O	6.909514	-6.910477	-4.089814
O	6.837493	-1.339747	-4.160400
O	9.658912	-1.339748	-1.339743
O	9.658912	-4.160405	-4.160400
O	12.408311	-4.089819	-1.410329
Rb	4.124095	-6.875179	-4.125102
Rb	9.622892	-4.125117	-1.375031
Rb	6.873503	-4.125117	-4.125102
Rb	12.372300	-6.875179	-1.375031
Ba	10.997598	0.000000	0.000000
Ba	13.747007	-2.750072	-2.750072
O	12.336292	1.339743	-1.339743
O	9.586884	1.410329	-4.089814
O	15.085680	-1.410329	-1.410329
O	12.408313	-1.410329	-4.089814
O	12.336292	4.160400	-4.160400
O	15.157712	4.160400	-1.339743
O	15.157712	1.339743	-4.160400
O	17.907110	1.410329	-1.410329
Rb	9.622894	-1.375031	-4.125102
Rb	15.121691	1.375031	-1.375031
Rb	12.372303	1.375031	-4.125102
Rb	17.871099	-1.375031	-1.375031
Ba	0.000000	-5.500148	-5.500148
Ba	2.749408	-8.250220	-8.250219
O	1.338693	-4.160405	-6.839891
O	-1.410715	-4.089819	-9.589962
O	4.088082	-6.910477	-6.910477
O	1.410715	-6.910477	-9.589962
O	1.338693	-1.339747	-9.660548
O	4.160113	-1.339748	-6.839891
O	4.160113	-4.160405	-9.660548
O	6.909511	-4.089819	-6.910477
Rb	-1.374704	-6.875179	-9.625250
Rb	4.124093	-4.125117	-6.875179
Rb	1.374704	-4.125117	-9.625250
Rb	6.873501	-6.875179	-6.875179
Ba	5.498799	0.000000	-5.500148
Ba	8.248207	-2.750072	-8.250219
O	6.837493	1.339743	-6.839891
O	4.088084	1.410329	-9.589962
O	9.586881	-1.410329	-6.910477
O	6.909514	-1.410329	-9.589962
O	6.837493	4.160400	-9.660548
O	9.658912	4.160400	-6.839891
O	9.658912	1.339743	-9.660548
O	12.408311	1.410329	-6.910477
Rb	4.124095	-1.375031	-9.625250
Rb	9.622892	1.375031	-6.875179
Rb	6.873503	1.375031	-9.625250
Rb	12.372300	-1.375031	-6.875179
