40

Er	0.000000	0.000000	0.000000
Lu	2.056510	2.056510	2.056510
O	2.056510	2.056510	0.000000
O	0.000000	2.056510	2.056510
O	2.056510	0.000000	2.056510
Er	0.000000	0.000000	4.113002
Lu	2.056510	2.056510	6.169512
O	2.056510	2.056510	4.113002
O	0.000000	2.056510	6.169512
O	2.056510	0.000000	6.169512
Er	0.000000	4.113002	0.000000
Lu	2.056510	6.169512	2.056510
O	2.056510	6.169512	0.000000
O	0.000000	6.169512	2.056510
O	2.056510	4.113002	2.056510
Er	0.000000	4.113002	4.113002
Lu	2.056510	6.169512	6.169512
O	2.056510	6.169512	4.113002
O	0.000000	6.169512	6.169512
O	2.056510	4.113002	6.169512
Er	4.113002	0.000000	0.000000
Lu	6.169512	2.056510	2.056510
O	6.169512	2.056510	0.000000
O	4.113002	2.056510	2.056510
O	6.169512	0.000000	2.056510
Er	4.113002	0.000000	4.113002
Lu	6.169512	2.056510	6.169512
O	6.169512	2.056510	4.113002
O	4.113002	2.056510	6.169512
O	6.169512	0.000000	6.169512
Er	4.113002	4.113002	0.000000
Lu	6.169512	6.169512	2.056510
O	6.169512	6.169512	0.000000
O	4.113002	6.169512	2.056510
O	6.169512	4.113002	2.056510
Er	4.113002	4.113002	4.113002
Lu	6.169512	6.169512	6.169512
O	6.169512	6.169512	4.113002
O	4.113002	6.169512	6.169512
O	6.169512	4.113002	6.169512
