40

In	0.000000	0.000000	0.000000
Li	1.830363	1.830363	1.830363
O	1.830363	1.830363	0.000000
O	1.830363	0.000000	1.830363
O	0.000000	1.830363	1.830363
In	0.000000	0.000000	3.660726
Li	1.830363	1.830363	5.491090
O	1.830363	1.830363	3.660726
O	1.830363	0.000000	5.491090
O	0.000000	1.830363	5.491090
In	0.000000	3.660726	0.000000
Li	1.830363	5.491090	1.830363
O	1.830363	5.491090	0.000000
O	1.830363	3.660726	1.830363
O	0.000000	5.491090	1.830363
In	0.000000	3.660726	3.660726
Li	1.830363	5.491090	5.491090
O	1.830363	5.491090	3.660726
O	1.830363	3.660726	5.491090
O	0.000000	5.491090	5.491090
In	3.660726	0.000000	0.000000
Li	5.491090	1.830363	1.830363
O	5.491090	1.830363	0.000000
O	5.491090	0.000000	1.830363
O	3.660726	1.830363	1.830363
In	3.660726	0.000000	3.660726
Li	5.491090	1.830363	5.491090
O	5.491090	1.830363	3.660726
O	5.491090	0.000000	5.491090
O	3.660726	1.830363	5.491090
In	3.660726	3.660726	0.000000
Li	5.491090	5.491090	1.830363
O	5.491090	5.491090	0.000000
O	5.491090	3.660726	1.830363
O	3.660726	5.491090	1.830363
In	3.660726	3.660726	3.660726
Li	5.491090	5.491090	5.491090
O	5.491090	5.491090	3.660726
O	5.491090	3.660726	5.491090
O	3.660726	5.491090	5.491090
