40

Hf	2.053860	2.053860	2.053860
O	2.053860	2.053860	0.000000
O	0.000000	2.053860	2.053860
O	2.053860	0.000000	2.053860
U	0.000000	0.000000	0.000000
Hf	2.053860	2.053860	6.161567
O	2.053860	2.053860	4.107707
O	0.000000	2.053860	6.161567
O	2.053860	0.000000	6.161567
U	0.000000	0.000000	4.107707
Hf	2.053860	6.161567	2.053860
O	2.053860	6.161567	0.000000
O	0.000000	6.161567	2.053860
O	2.053860	4.107707	2.053860
U	0.000000	4.107707	0.000000
Hf	2.053860	6.161567	6.161567
O	2.053860	6.161567	4.107707
O	0.000000	6.161567	6.161567
O	2.053860	4.107707	6.161567
U	0.000000	4.107707	4.107707
Hf	6.161567	2.053860	2.053860
O	6.161567	2.053860	0.000000
O	4.107707	2.053860	2.053860
O	6.161567	0.000000	2.053860
U	4.107707	0.000000	0.000000
Hf	6.161567	2.053860	6.161567
O	6.161567	2.053860	4.107707
O	4.107707	2.053860	6.161567
O	6.161567	0.000000	6.161567
U	4.107707	0.000000	4.107707
Hf	6.161567	6.161567	2.053860
O	6.161567	6.161567	0.000000
O	4.107707	6.161567	2.053860
O	6.161567	4.107707	2.053860
U	4.107707	4.107707	0.000000
Hf	6.161567	6.161567	6.161567
O	6.161567	6.161567	4.107707
O	4.107707	6.161567	6.161567
O	6.161567	4.107707	6.161567
U	4.107707	4.107707	4.107707
