40

F	0.000000	1.930555	1.930555
F	1.930555	0.000000	1.930555
F	1.930555	1.930555	0.000000
Fe	0.000000	0.000000	0.000000
O	1.930555	1.930555	1.930555
F	0.000000	1.930555	5.791666
F	1.930555	0.000000	5.791666
F	1.930555	1.930555	3.861111
Fe	0.000000	0.000000	3.861111
O	1.930555	1.930555	5.791666
F	0.000000	5.791666	1.930555
F	1.930555	3.861111	1.930555
F	1.930555	5.791666	0.000000
Fe	0.000000	3.861111	0.000000
O	1.930555	5.791666	1.930555
F	0.000000	5.791666	5.791666
F	1.930555	3.861111	5.791666
F	1.930555	5.791666	3.861111
Fe	0.000000	3.861111	3.861111
O	1.930555	5.791666	5.791666
F	3.861111	1.930555	1.930555
F	5.791666	0.000000	1.930555
F	5.791666	1.930555	0.000000
Fe	3.861111	0.000000	0.000000
O	5.791666	1.930555	1.930555
F	3.861111	1.930555	5.791666
F	5.791666	0.000000	5.791666
F	5.791666	1.930555	3.861111
Fe	3.861111	0.000000	3.861111
O	5.791666	1.930555	5.791666
F	3.861111	5.791666	1.930555
F	5.791666	3.861111	1.930555
F	5.791666	5.791666	0.000000
Fe	3.861111	3.861111	0.000000
O	5.791666	5.791666	1.930555
F	3.861111	5.791666	5.791666
F	5.791666	3.861111	5.791666
F	5.791666	5.791666	3.861111
Fe	3.861111	3.861111	3.861111
O	5.791666	5.791666	5.791666
