40

Fe	1.969296	1.969296	1.969296
O	0.000000	1.969296	1.969296
O	1.969296	0.000000	1.969296
O	1.969296	1.969296	0.000000
Te	0.000000	0.000000	0.000000
Fe	1.969296	1.969296	5.907887
O	0.000000	1.969296	5.907887
O	1.969296	0.000000	5.907887
O	1.969296	1.969296	3.938591
Te	0.000000	0.000000	3.938591
Fe	1.969296	5.907887	1.969296
O	0.000000	5.907887	1.969296
O	1.969296	3.938591	1.969296
O	1.969296	5.907887	0.000000
Te	0.000000	3.938591	0.000000
Fe	1.969296	5.907887	5.907887
O	0.000000	5.907887	5.907887
O	1.969296	3.938591	5.907887
O	1.969296	5.907887	3.938591
Te	0.000000	3.938591	3.938591
Fe	5.907887	1.969296	1.969296
O	3.938591	1.969296	1.969296
O	5.907887	0.000000	1.969296
O	5.907887	1.969296	0.000000
Te	3.938591	0.000000	0.000000
Fe	5.907887	1.969296	5.907887
O	3.938591	1.969296	5.907887
O	5.907887	0.000000	5.907887
O	5.907887	1.969296	3.938591
Te	3.938591	0.000000	3.938591
Fe	5.907887	5.907887	1.969296
O	3.938591	5.907887	1.969296
O	5.907887	3.938591	1.969296
O	5.907887	5.907887	0.000000
Te	3.938591	3.938591	0.000000
Fe	5.907887	5.907887	5.907887
O	3.938591	5.907887	5.907887
O	5.907887	3.938591	5.907887
O	5.907887	5.907887	3.938591
Te	3.938591	3.938591	3.938591
