112

Na	0.000000	0.000000	0.000000
Na	2.413157	-2.413078	-2.413078
O	3.752149	-1.073399	-1.073399
O	-1.074165	1.073399	-3.752758
O	1.074165	-1.073399	-3.752758
O	1.338992	1.339679	-1.339679
O	5.900480	1.073399	-1.073399
O	1.338992	3.486478	-3.486478
O	3.487323	3.486478	-1.339679
O	3.487323	1.339679	-3.486478
Tl	-1.206579	-1.206539	-3.619618
Tl	3.619736	1.206539	-1.206539
Tl	6.032893	-1.206539	-1.206539
Tl	1.206579	1.206539	-3.619618
Na	4.826315	4.826157	0.000000
Na	7.239472	2.413078	-2.413078
O	8.578464	3.752758	-1.073399
O	3.752149	5.899556	-3.752758
O	5.900480	3.752758	-3.752758
O	6.165307	6.165836	-1.339679
O	10.726795	5.899556	-1.073399
O	6.165307	8.312634	-3.486478
O	8.313637	8.312634	-1.339679
O	8.313637	6.165836	-3.486478
Tl	3.619736	3.619618	-3.619618
Tl	8.446051	6.032696	-1.206539
Tl	10.859208	3.619618	-1.206539
Tl	6.032893	6.032696	-3.619618
Na	-4.826315	0.000000	-4.826157
Na	-2.413157	-2.413078	-7.239235
O	-1.074165	-1.073399	-5.899556
O	-5.900480	1.073399	-8.578914
O	-3.752149	-1.073399	-8.578914
O	-3.487323	1.339679	-6.165836
O	1.074165	1.073399	-5.899556
O	-3.487323	3.486478	-8.312634
O	-1.338992	3.486478	-6.165836
O	-1.338992	1.339679	-8.312634
Tl	-6.032893	-1.206539	-8.445774
Tl	-1.206579	1.206539	-6.032696
Tl	1.206579	-1.206539	-6.032696
Tl	-3.619736	1.206539	-8.445774
Na	0.000000	4.826157	-4.826157
Na	2.413157	2.413078	-7.239235
O	3.752149	3.752758	-5.899556
O	-1.074165	5.899556	-8.578914
O	1.074165	3.752758	-8.578914
O	1.338992	6.165836	-6.165836
O	5.900480	5.899556	-5.899556
O	1.338992	8.312634	-8.312634
O	3.487323	8.312634	-6.165836
O	3.487323	6.165836	-8.312634
Tl	-1.206579	3.619618	-8.445774
Tl	3.619736	6.032696	-6.032696
Tl	6.032893	3.619618	-6.032696
Tl	1.206579	6.032696	-8.445774
Na	4.826315	-4.826157	0.000000
Na	7.239472	-7.239235	-2.413078
O	8.578464	-5.899556	-1.073399
O	3.752149	-3.752758	-3.752758
O	5.900480	-5.899556	-3.752758
O	6.165307	-3.486478	-1.339679
O	10.726795	-3.752758	-1.073399
O	6.165307	-1.339679	-3.486478
O	8.313637	-1.339679	-1.339679
O	8.313637	-3.486478	-3.486478
Tl	3.619736	-6.032696	-3.619618
Tl	8.446051	-3.619618	-1.206539
Tl	10.859208	-6.032696	-1.206539
Tl	6.032893	-3.619618	-3.619618
Na	9.652629	0.000000	0.000000
Na	12.065787	-2.413078	-2.413078
O	13.404779	-1.073399	-1.073399
O	8.578464	1.073399	-3.752758
O	10.726795	-1.073399	-3.752758
O	10.991621	1.339679	-1.339679
O	15.553109	1.073399	-1.073399
O	10.991621	3.486478	-3.486478
O	13.139952	3.486478	-1.339679
O	13.139952	1.339679	-3.486478
Tl	8.446051	-1.206539	-3.619618
Tl	13.272365	1.206539	-1.206539
Tl	15.685523	-1.206539	-1.206539
Tl	10.859208	1.206539	-3.619618
Na	0.000000	-4.826157	-4.826157
Na	2.413157	-7.239235	-7.239235
O	3.752149	-5.899556	-5.899556
O	-1.074165	-3.752758	-8.578914
O	1.074165	-5.899556	-8.578914
O	1.338992	-3.486478	-6.165836
O	5.900480	-3.752758	-5.899556
O	1.338992	-1.339679	-8.312634
O	3.487323	-1.339679	-6.165836
O	3.487323	-3.486478	-8.312634
Tl	-1.206579	-6.032696	-8.445774
Tl	3.619736	-3.619618	-6.032696
Tl	6.032893	-6.032696	-6.032696
Tl	1.206579	-3.619618	-8.445774
Na	4.826315	0.000000	-4.826157
Na	7.239472	-2.413078	-7.239235
O	8.578464	-1.073399	-5.899556
O	3.752149	1.073399	-8.578914
O	5.900480	-1.073399	-8.578914
O	6.165307	1.339679	-6.165836
O	10.726795	1.073399	-5.899556
O	6.165307	3.486478	-8.312634
O	8.313637	3.486478	-6.165836
O	8.313637	1.339679	-8.312634
Tl	3.619736	-1.206539	-8.445774
Tl	8.446051	1.206539	-6.032696
Tl	10.859208	-1.206539	-6.032696
Tl	6.032893	1.206539	-8.445774
