112

Cr	0.000000	0.000000	0.000000
Cr	2.304693	-2.305130	-2.305130
Eu	-1.152346	-1.152560	-3.457690
Eu	1.152346	1.152560	-3.457690
Eu	3.457039	1.152560	-1.152560
Eu	5.761722	-1.152560	-1.152560
O	1.057160	1.058229	-1.058229
O	-1.247532	1.246900	-3.363359
O	3.361853	-1.246900	-1.246900
O	1.247532	-1.246900	-3.363359
O	1.057160	3.552030	-3.552030
O	3.552225	1.058229	-3.552030
O	3.552225	3.552030	-1.058229
O	5.856917	1.246900	-1.246900
Cr	4.609381	4.610258	0.000000
Cr	6.914074	2.305128	-2.305130
Eu	3.457035	3.457698	-3.457690
Eu	5.761727	5.762818	-3.457690
Eu	8.066420	5.762818	-1.152560
Eu	10.371103	3.457698	-1.152560
O	5.666541	5.668487	-1.058229
O	3.361849	5.857158	-3.363359
O	7.971234	3.363357	-1.246900
O	5.856913	3.363357	-3.363359
O	5.666541	8.162288	-3.552030
O	8.161606	5.668487	-3.552030
O	8.161606	8.162288	-1.058229
O	10.466298	5.857158	-1.246900
Cr	-4.609381	0.000000	-4.610258
Cr	-2.304689	-2.305130	-6.915388
Eu	-5.761727	-1.152560	-8.067947
Eu	-3.457035	1.152560	-8.067947
Eu	-1.152342	1.152560	-5.762818
Eu	1.152340	-1.152560	-5.762818
O	-3.552221	1.058229	-5.668487
O	-5.856913	1.246900	-7.973617
O	-1.247528	-1.246900	-5.857158
O	-3.361849	-1.246900	-7.973617
O	-3.552221	3.552030	-8.162288
O	-1.057156	1.058229	-8.162288
O	-1.057156	3.552030	-5.668487
O	1.247536	1.246900	-5.857158
Cr	0.000000	4.610258	-4.610258
Cr	2.304693	2.305128	-6.915388
Eu	-1.152346	3.457698	-8.067947
Eu	1.152346	5.762818	-8.067947
Eu	3.457039	5.762818	-5.762818
Eu	5.761722	3.457698	-5.762818
O	1.057160	5.668487	-5.668487
O	-1.247532	5.857158	-7.973617
O	3.361853	3.363357	-5.857158
O	1.247532	3.363357	-7.973617
O	1.057160	8.162288	-8.162288
O	3.552225	5.668487	-8.162288
O	3.552225	8.162288	-5.668487
O	5.856917	5.857158	-5.857158
Cr	4.609381	-4.610258	0.000000
Cr	6.914074	-6.915388	-2.305130
Eu	3.457035	-5.762818	-3.457690
Eu	5.761727	-3.457698	-3.457690
Eu	8.066420	-3.457698	-1.152560
Eu	10.371103	-5.762818	-1.152560
O	5.666541	-3.552029	-1.058229
O	3.361849	-3.363357	-3.363359
O	7.971234	-5.857158	-1.246900
O	5.856913	-5.857158	-3.363359
O	5.666541	-1.058228	-3.552030
O	8.161606	-3.552029	-3.552030
O	8.161606	-1.058228	-1.058229
O	10.466298	-3.363357	-1.246900
Cr	9.218762	0.000000	0.000000
Cr	11.523455	-2.305130	-2.305130
Eu	8.066416	-1.152560	-3.457690
Eu	10.371108	1.152560	-3.457690
Eu	12.675801	1.152560	-1.152560
Eu	14.980484	-1.152560	-1.152560
O	10.275922	1.058229	-1.058229
O	7.971230	1.246900	-3.363359
O	12.580615	-1.246900	-1.246900
O	10.466294	-1.246900	-3.363359
O	10.275922	3.552030	-3.552030
O	12.770987	1.058229	-3.552030
O	12.770987	3.552030	-1.058229
O	15.075679	1.246900	-1.246900
Cr	0.000000	-4.610258	-4.610258
Cr	2.304693	-6.915388	-6.915388
Eu	-1.152346	-5.762818	-8.067947
Eu	1.152346	-3.457698	-8.067947
Eu	3.457039	-3.457698	-5.762818
Eu	5.761722	-5.762818	-5.762818
O	1.057160	-3.552029	-5.668487
O	-1.247532	-3.363357	-7.973617
O	3.361853	-5.857158	-5.857158
O	1.247532	-5.857158	-7.973617
O	1.057160	-1.058228	-8.162288
O	3.552225	-3.552029	-8.162288
O	3.552225	-1.058228	-5.668487
O	5.856917	-3.363357	-5.857158
Cr	4.609381	0.000000	-4.610258
Cr	6.914074	-2.305130	-6.915388
Eu	3.457035	-1.152560	-8.067947
Eu	5.761727	1.152560	-8.067947
Eu	8.066420	1.152560	-5.762818
Eu	10.371103	-1.152560	-5.762818
O	5.666541	1.058229	-5.668487
O	3.361849	1.246900	-7.973617
O	7.971234	-1.246900	-5.857158
O	5.856913	-1.246900	-7.973617
O	5.666541	3.552030	-8.162288
O	8.161606	1.058229	-8.162288
O	8.161606	3.552030	-5.668487
O	10.466298	1.246900	-5.857158
