40

O	0.000000	2.000374	2.000374
O	2.000374	0.000000	2.000374
O	2.000374	2.000374	0.000000
Pb	0.000000	0.000000	0.000000
Rh	2.000374	2.000374	2.000374
O	0.000000	2.000374	6.001122
O	2.000374	0.000000	6.001122
O	2.000374	2.000374	4.000748
Pb	0.000000	0.000000	4.000748
Rh	2.000374	2.000374	6.001122
O	0.000000	6.001122	2.000374
O	2.000374	4.000748	2.000374
O	2.000374	6.001122	0.000000
Pb	0.000000	4.000748	0.000000
Rh	2.000374	6.001122	2.000374
O	0.000000	6.001122	6.001122
O	2.000374	4.000748	6.001122
O	2.000374	6.001122	4.000748
Pb	0.000000	4.000748	4.000748
Rh	2.000374	6.001122	6.001122
O	4.000748	2.000374	2.000374
O	6.001122	0.000000	2.000374
O	6.001122	2.000374	0.000000
Pb	4.000748	0.000000	0.000000
Rh	6.001122	2.000374	2.000374
O	4.000748	2.000374	6.001122
O	6.001122	0.000000	6.001122
O	6.001122	2.000374	4.000748
Pb	4.000748	0.000000	4.000748
Rh	6.001122	2.000374	6.001122
O	4.000748	6.001122	2.000374
O	6.001122	4.000748	2.000374
O	6.001122	6.001122	0.000000
Pb	4.000748	4.000748	0.000000
Rh	6.001122	6.001122	2.000374
O	4.000748	6.001122	6.001122
O	6.001122	4.000748	6.001122
O	6.001122	6.001122	4.000748
Pb	4.000748	4.000748	4.000748
Rh	6.001122	6.001122	6.001122
