112

Cu	0.000000	0.000000	0.000000
Cu	2.259313	-2.260188	-2.260188
O	3.488127	-1.030469	-1.030469
O	-1.030499	1.030469	-3.489906
O	1.030499	-1.030469	-3.489906
O	1.228814	1.229719	-1.229719
O	5.549126	1.030469	-1.030469
O	1.228814	3.290657	-3.290657
O	3.289813	3.290657	-1.229719
O	3.289813	1.229719	-3.290657
Zr	-1.129657	-1.130094	-3.390282
Zr	3.388970	1.130094	-1.130094
Zr	5.648283	-1.130094	-1.130094
Zr	1.129657	1.130094	-3.390282
Cu	4.518627	4.520376	0.000000
Cu	6.777940	2.260188	-2.260188
O	8.006754	3.489906	-1.030469
O	3.488127	5.550845	-3.489906
O	5.549126	3.489906	-3.489906
O	5.747441	5.750094	-1.229719
O	10.067752	5.550845	-1.030469
O	5.747441	7.811033	-3.290657
O	7.808439	7.811033	-1.229719
O	7.808439	5.750094	-3.290657
Zr	3.388970	3.390282	-3.390282
Zr	7.907597	5.650470	-1.130094
Zr	10.166910	3.390282	-1.130094
Zr	5.648283	5.650470	-3.390282
Cu	-4.518627	0.000000	-4.520376
Cu	-2.259313	-2.260188	-6.780563
O	-1.030499	-1.030469	-5.550845
O	-5.549126	1.030469	-8.010282
O	-3.488127	-1.030469	-8.010282
O	-3.289813	1.229719	-5.750094
O	1.030499	1.030469	-5.550845
O	-3.289813	3.290657	-7.811033
O	-1.228814	3.290657	-5.750094
O	-1.228814	1.229719	-7.811033
Zr	-5.648283	-1.130094	-7.910657
Zr	-1.129657	1.130094	-5.650470
Zr	1.129657	-1.130094	-5.650470
Zr	-3.388970	1.130094	-7.910657
Cu	0.000000	4.520376	-4.520376
Cu	2.259313	2.260188	-6.780563
O	3.488127	3.489906	-5.550845
O	-1.030499	5.550845	-8.010282
O	1.030499	3.489906	-8.010282
O	1.228814	5.750094	-5.750094
O	5.549126	5.550845	-5.550845
O	1.228814	7.811033	-7.811033
O	3.289813	7.811033	-5.750094
O	3.289813	5.750094	-7.811033
Zr	-1.129657	3.390282	-7.910657
Zr	3.388970	5.650470	-5.650470
Zr	5.648283	3.390282	-5.650470
Zr	1.129657	5.650470	-7.910657
Cu	4.518627	-4.520376	0.000000
Cu	6.777940	-6.780563	-2.260188
O	8.006754	-5.550845	-1.030469
O	3.488127	-3.489906	-3.489906
O	5.549126	-5.550845	-3.489906
O	5.747441	-3.290657	-1.229719
O	10.067752	-3.489906	-1.030469
O	5.747441	-1.229719	-3.290657
O	7.808439	-1.229719	-1.229719
O	7.808439	-3.290657	-3.290657
Zr	3.388970	-5.650470	-3.390282
Zr	7.907597	-3.390282	-1.130094
Zr	10.166910	-5.650470	-1.130094
Zr	5.648283	-3.390282	-3.390282
Cu	9.037253	0.000000	0.000000
Cu	11.296566	-2.260188	-2.260188
O	12.525380	-1.030469	-1.030469
O	8.006754	1.030469	-3.489906
O	10.067752	-1.030469	-3.489906
O	10.266067	1.229719	-1.229719
O	14.586379	1.030469	-1.030469
O	10.266067	3.290657	-3.290657
O	12.327066	3.290657	-1.229719
O	12.327066	1.229719	-3.290657
Zr	7.907597	-1.130094	-3.390282
Zr	12.426223	1.130094	-1.130094
Zr	14.685536	-1.130094	-1.130094
Zr	10.166910	1.130094	-3.390282
Cu	0.000000	-4.520376	-4.520376
Cu	2.259313	-6.780563	-6.780563
O	3.488127	-5.550845	-5.550845
O	-1.030499	-3.489906	-8.010282
O	1.030499	-5.550845	-8.010282
O	1.228814	-3.290657	-5.750094
O	5.549126	-3.489906	-5.550845
O	1.228814	-1.229719	-7.811033
O	3.289813	-1.229719	-5.750094
O	3.289813	-3.290657	-7.811033
Zr	-1.129657	-5.650470	-7.910657
Zr	3.388970	-3.390282	-5.650470
Zr	5.648283	-5.650470	-5.650470
Zr	1.129657	-3.390282	-7.910657
Cu	4.518627	0.000000	-4.520376
Cu	6.777940	-2.260188	-6.780563
O	8.006754	-1.030469	-5.550845
O	3.488127	1.030469	-8.010282
O	5.549126	-1.030469	-8.010282
O	5.747441	1.229719	-5.750094
O	10.067752	1.030469	-5.550845
O	5.747441	3.290657	-7.811033
O	7.808439	3.290657	-5.750094
O	7.808439	1.229719	-7.811033
Zr	3.388970	-1.130094	-7.910657
Zr	7.907597	1.130094	-5.650470
Zr	10.166910	-1.130094	-5.650470
Zr	5.648283	1.130094	-7.910657
