112

Cr	0.000000	0.000000	0.000000
Cr	2.152057	-2.152665	-2.152665
O	3.347296	-0.956617	-0.956617
O	-0.956817	0.956617	-3.348713
O	0.956817	-0.956617	-3.348713
O	1.195239	1.196048	-1.196048
O	5.260930	0.956617	-0.956617
O	1.195239	3.109282	-3.109282
O	3.108874	3.109282	-1.196048
O	3.108874	1.196048	-3.109282
Ti	-1.076028	-1.076333	-3.228998
Ti	3.228085	1.076333	-1.076333
Ti	5.380141	-1.076333	-1.076333
Ti	1.076028	1.076333	-3.228998
Cr	4.304113	4.305331	0.000000
Cr	6.456170	2.152665	-2.152665
O	7.651409	3.348713	-0.956617
O	3.347296	5.261948	-3.348713
O	5.260930	3.348713	-3.348713
O	5.499352	5.501379	-1.196048
O	9.565043	5.261948	-0.956617
O	5.499352	7.414613	-3.109282
O	7.412987	7.414613	-1.196048
O	7.412987	5.501379	-3.109282
Ti	3.228085	3.228998	-3.228998
Ti	7.532198	5.381663	-1.076333
Ti	9.684254	3.228998	-1.076333
Ti	5.380141	5.381663	-3.228998
Cr	-4.304113	0.000000	-4.305331
Cr	-2.152057	-2.152665	-6.457996
O	-0.956817	-0.956617	-5.261948
O	-5.260930	0.956617	-7.654044
O	-3.347296	-0.956617	-7.654044
O	-3.108874	1.196048	-5.501379
O	0.956817	0.956617	-5.261948
O	-3.108874	3.109282	-7.414613
O	-1.195239	3.109282	-5.501379
O	-1.195239	1.196048	-7.414613
Ti	-5.380141	-1.076333	-7.534328
Ti	-1.076028	1.076333	-5.381663
Ti	1.076028	-1.076333	-5.381663
Ti	-3.228085	1.076333	-7.534328
Cr	0.000000	4.305331	-4.305331
Cr	2.152057	2.152665	-6.457996
O	3.347296	3.348713	-5.261948
O	-0.956817	5.261948	-7.654044
O	0.956817	3.348713	-7.654044
O	1.195239	5.501379	-5.501379
O	5.260930	5.261948	-5.261948
O	1.195239	7.414613	-7.414613
O	3.108874	7.414613	-5.501379
O	3.108874	5.501379	-7.414613
Ti	-1.076028	3.228998	-7.534328
Ti	3.228085	5.381663	-5.381663
Ti	5.380141	3.228998	-5.381663
Ti	1.076028	5.381663	-7.534328
Cr	4.304113	-4.305331	0.000000
Cr	6.456170	-6.457996	-2.152665
O	7.651409	-5.261948	-0.956617
O	3.347296	-3.348713	-3.348713
O	5.260930	-5.261948	-3.348713
O	5.499352	-3.109282	-1.196048
O	9.565043	-3.348713	-0.956617
O	5.499352	-1.196048	-3.109282
O	7.412987	-1.196048	-1.196048
O	7.412987	-3.109282	-3.109282
Ti	3.228085	-5.381663	-3.228998
Ti	7.532198	-3.228998	-1.076333
Ti	9.684254	-5.381663	-1.076333
Ti	5.380141	-3.228998	-3.228998
Cr	8.608226	0.000000	0.000000
Cr	10.760283	-2.152665	-2.152665
O	11.955522	-0.956617	-0.956617
O	7.651409	0.956617	-3.348713
O	9.565043	-0.956617	-3.348713
O	9.803465	1.196048	-1.196048
O	13.869156	0.956617	-0.956617
O	9.803465	3.109282	-3.109282
O	11.717100	3.109282	-1.196048
O	11.717100	1.196048	-3.109282
Ti	7.532198	-1.076333	-3.228998
Ti	11.836311	1.076333	-1.076333
Ti	13.988367	-1.076333	-1.076333
Ti	9.684254	1.076333	-3.228998
Cr	0.000000	-4.305331	-4.305331
Cr	2.152057	-6.457996	-6.457996
O	3.347296	-5.261948	-5.261948
O	-0.956817	-3.348713	-7.654044
O	0.956817	-5.261948	-7.654044
O	1.195239	-3.109282	-5.501379
O	5.260930	-3.348713	-5.261948
O	1.195239	-1.196048	-7.414613
O	3.108874	-1.196048	-5.501379
O	3.108874	-3.109282	-7.414613
Ti	-1.076028	-5.381663	-7.534328
Ti	3.228085	-3.228998	-5.381663
Ti	5.380141	-5.381663	-5.381663
Ti	1.076028	-3.228998	-7.534328
Cr	4.304113	0.000000	-4.305331
Cr	6.456170	-2.152665	-6.457996
O	7.651409	-0.956617	-5.261948
O	3.347296	0.956617	-7.654044
O	5.260930	-0.956617	-7.654044
O	5.499352	1.196048	-5.501379
O	9.565043	0.956617	-5.261948
O	5.499352	3.109282	-7.414613
O	7.412987	3.109282	-5.501379
O	7.412987	1.196048	-7.414613
Ti	3.228085	-1.076333	-7.534328
Ti	7.532198	1.076333	-5.381663
Ti	9.684254	-1.076333	-5.381663
Ti	5.380141	1.076333	-7.534328
