40

Br	0.000000	0.000000	0.000000
O	0.000000	1.832155	1.832155
O	1.832155	0.000000	1.832155
O	1.832155	1.832155	0.000000
Si	1.832155	1.832155	1.832155
Br	0.000000	0.000000	3.664309
O	0.000000	1.832155	5.496464
O	1.832155	0.000000	5.496464
O	1.832155	1.832155	3.664309
Si	1.832155	1.832155	5.496464
Br	0.000000	3.664309	0.000000
O	0.000000	5.496464	1.832155
O	1.832155	3.664309	1.832155
O	1.832155	5.496464	0.000000
Si	1.832155	5.496464	1.832155
Br	0.000000	3.664309	3.664309
O	0.000000	5.496464	5.496464
O	1.832155	3.664309	5.496464
O	1.832155	5.496464	3.664309
Si	1.832155	5.496464	5.496464
Br	3.664309	0.000000	0.000000
O	3.664309	1.832155	1.832155
O	5.496464	0.000000	1.832155
O	5.496464	1.832155	0.000000
Si	5.496464	1.832155	1.832155
Br	3.664309	0.000000	3.664309
O	3.664309	1.832155	5.496464
O	5.496464	0.000000	5.496464
O	5.496464	1.832155	3.664309
Si	5.496464	1.832155	5.496464
Br	3.664309	3.664309	0.000000
O	3.664309	5.496464	1.832155
O	5.496464	3.664309	1.832155
O	5.496464	5.496464	0.000000
Si	5.496464	5.496464	1.832155
Br	3.664309	3.664309	3.664309
O	3.664309	5.496464	5.496464
O	5.496464	3.664309	5.496464
O	5.496464	5.496464	3.664309
Si	5.496464	5.496464	5.496464
