112

Co	0.000000	0.000000	0.000000
Co	2.093906	-2.094071	-2.094071
Mg	-1.046953	-1.047035	-3.141106
Mg	3.140859	1.047035	-1.047035
Mg	5.234765	-1.047035	-1.047035
Mg	1.046953	1.047035	-3.141106
O	3.150745	-1.036849	-1.036849
O	-1.037066	1.036849	-3.151293
O	1.037066	-1.036849	-3.151293
O	1.056840	1.057222	-1.057222
O	5.224878	1.036849	-1.036849
O	1.056840	3.130920	-3.130920
O	3.130972	3.130920	-1.057222
O	3.130972	1.057222	-3.130920
Co	4.187812	4.188142	0.000000
Co	6.281718	2.094071	-2.094071
Mg	3.140859	3.141106	-3.141106
Mg	7.328670	5.235177	-1.047035
Mg	9.422576	3.141106	-1.047035
Mg	5.234765	5.235177	-3.141106
O	7.338557	3.151293	-1.036849
O	3.150745	5.224991	-3.151293
O	5.224878	3.151293	-3.151293
O	5.244651	5.245364	-1.057222
O	9.412690	5.224991	-1.036849
O	5.244651	7.319062	-3.130920
O	7.318784	7.319062	-1.057222
O	7.318784	5.245364	-3.130920
Co	-4.187812	0.000000	-4.188142
Co	-2.093906	-2.094071	-6.282213
Mg	-5.234765	-1.047035	-7.329248
Mg	-1.046953	1.047035	-5.235177
Mg	1.046953	-1.047035	-5.235177
Mg	-3.140859	1.047035	-7.329248
O	-1.037066	-1.036849	-5.224991
O	-5.224878	1.036849	-7.339435
O	-3.150745	-1.036849	-7.339435
O	-3.130972	1.057222	-5.245364
O	1.037066	1.036849	-5.224991
O	-3.130972	3.130920	-7.319062
O	-1.056840	3.130920	-5.245364
O	-1.056840	1.057222	-7.319062
Co	0.000000	4.188142	-4.188142
Co	2.093906	2.094071	-6.282213
Mg	-1.046953	3.141106	-7.329248
Mg	3.140859	5.235177	-5.235177
Mg	5.234765	3.141106	-5.235177
Mg	1.046953	5.235177	-7.329248
O	3.150745	3.151293	-5.224991
O	-1.037066	5.224991	-7.339435
O	1.037066	3.151293	-7.339435
O	1.056840	5.245364	-5.245364
O	5.224878	5.224991	-5.224991
O	1.056840	7.319062	-7.319062
O	3.130972	7.319062	-5.245364
O	3.130972	5.245364	-7.319062
Co	4.187812	-4.188142	0.000000
Co	6.281718	-6.282213	-2.094071
Mg	3.140859	-5.235177	-3.141106
Mg	7.328670	-3.141106	-1.047035
Mg	9.422576	-5.235177	-1.047035
Mg	5.234765	-3.141106	-3.141106
O	7.338557	-5.224991	-1.036849
O	3.150745	-3.151293	-3.151293
O	5.224878	-5.224991	-3.151293
O	5.244651	-3.130920	-1.057222
O	9.412690	-3.151293	-1.036849
O	5.244651	-1.057222	-3.130920
O	7.318784	-1.057222	-1.057222
O	7.318784	-3.130920	-3.130920
Co	8.375623	0.000000	0.000000
Co	10.469529	-2.094071	-2.094071
Mg	7.328670	-1.047035	-3.141106
Mg	11.516482	1.047035	-1.047035
Mg	13.610388	-1.047035	-1.047035
Mg	9.422576	1.047035	-3.141106
O	11.526369	-1.036849	-1.036849
O	7.338557	1.036849	-3.151293
O	9.412690	-1.036849	-3.151293
O	9.432463	1.057222	-1.057222
O	13.600501	1.036849	-1.036849
O	9.432463	3.130920	-3.130920
O	11.506596	3.130920	-1.057222
O	11.506596	1.057222	-3.130920
Co	0.000000	-4.188142	-4.188142
Co	2.093906	-6.282213	-6.282213
Mg	-1.046953	-5.235177	-7.329248
Mg	3.140859	-3.141106	-5.235177
Mg	5.234765	-5.235177	-5.235177
Mg	1.046953	-3.141106	-7.329248
O	3.150745	-5.224991	-5.224991
O	-1.037066	-3.151293	-7.339435
O	1.037066	-5.224991	-7.339435
O	1.056840	-3.130920	-5.245364
O	5.224878	-3.151293	-5.224991
O	1.056840	-1.057222	-7.319062
O	3.130972	-1.057222	-5.245364
O	3.130972	-3.130920	-7.319062
Co	4.187812	0.000000	-4.188142
Co	6.281718	-2.094071	-6.282213
Mg	3.140859	-1.047035	-7.329248
Mg	7.328670	1.047035	-5.235177
Mg	9.422576	-1.047035	-5.235177
Mg	5.234765	1.047035	-7.329248
O	7.338557	-1.036849	-5.224991
O	3.150745	1.036849	-7.339435
O	5.224878	-1.036849	-7.339435
O	5.244651	1.057222	-5.245364
O	9.412690	1.036849	-5.224991
O	5.244651	3.130920	-7.319062
O	7.318784	3.130920	-5.245364
O	7.318784	1.057222	-7.319062
