40

B	0.000000	0.000000	0.000000
Hf	2.056551	2.056551	2.056551
O	0.000000	2.056551	2.056551
O	2.056551	0.000000	2.056551
O	2.056551	2.056551	0.000000
B	0.000000	0.000000	4.113103
Hf	2.056551	2.056551	6.169654
O	0.000000	2.056551	6.169654
O	2.056551	0.000000	6.169654
O	2.056551	2.056551	4.113103
B	0.000000	4.113103	0.000000
Hf	2.056551	6.169654	2.056551
O	0.000000	6.169654	2.056551
O	2.056551	4.113103	2.056551
O	2.056551	6.169654	0.000000
B	0.000000	4.113103	4.113103
Hf	2.056551	6.169654	6.169654
O	0.000000	6.169654	6.169654
O	2.056551	4.113103	6.169654
O	2.056551	6.169654	4.113103
B	4.113103	0.000000	0.000000
Hf	6.169654	2.056551	2.056551
O	4.113103	2.056551	2.056551
O	6.169654	0.000000	2.056551
O	6.169654	2.056551	0.000000
B	4.113103	0.000000	4.113103
Hf	6.169654	2.056551	6.169654
O	4.113103	2.056551	6.169654
O	6.169654	0.000000	6.169654
O	6.169654	2.056551	4.113103
B	4.113103	4.113103	0.000000
Hf	6.169654	6.169654	2.056551
O	4.113103	6.169654	2.056551
O	6.169654	4.113103	2.056551
O	6.169654	6.169654	0.000000
B	4.113103	4.113103	4.113103
Hf	6.169654	6.169654	6.169654
O	4.113103	6.169654	6.169654
O	6.169654	4.113103	6.169654
O	6.169654	6.169654	4.113103
