40

La	0.000000	0.000000	0.000000
O	2.207663	2.207663	0.000000
O	2.207663	0.000000	2.207663
O	0.000000	2.207663	2.207663
U	2.207663	2.207663	2.207663
La	0.000000	0.000000	4.415325
O	2.207663	2.207663	4.415325
O	2.207663	0.000000	6.622989
O	0.000000	2.207663	6.622989
U	2.207663	2.207663	6.622989
La	0.000000	4.415325	0.000000
O	2.207663	6.622989	0.000000
O	2.207663	4.415325	2.207663
O	0.000000	6.622989	2.207663
U	2.207663	6.622989	2.207663
La	0.000000	4.415325	4.415325
O	2.207663	6.622989	4.415325
O	2.207663	4.415325	6.622989
O	0.000000	6.622989	6.622989
U	2.207663	6.622989	6.622989
La	4.415325	0.000000	0.000000
O	6.622989	2.207663	0.000000
O	6.622989	0.000000	2.207663
O	4.415325	2.207663	2.207663
U	6.622989	2.207663	2.207663
La	4.415325	0.000000	4.415325
O	6.622989	2.207663	4.415325
O	6.622989	0.000000	6.622989
O	4.415325	2.207663	6.622989
U	6.622989	2.207663	6.622989
La	4.415325	4.415325	0.000000
O	6.622989	6.622989	0.000000
O	6.622989	4.415325	2.207663
O	4.415325	6.622989	2.207663
U	6.622989	6.622989	2.207663
La	4.415325	4.415325	4.415325
O	6.622989	6.622989	4.415325
O	6.622989	4.415325	6.622989
O	4.415325	6.622989	6.622989
U	6.622989	6.622989	6.622989
