40

Cl	1.902986	1.902986	1.902986
N	0.000000	0.000000	0.000000
O	0.000000	1.902986	1.902986
O	1.902986	0.000000	1.902986
O	1.902986	1.902986	0.000000
Cl	1.902986	1.902986	5.708958
N	0.000000	0.000000	3.805972
O	0.000000	1.902986	5.708958
O	1.902986	0.000000	5.708958
O	1.902986	1.902986	3.805972
Cl	1.902986	5.708958	1.902986
N	0.000000	3.805972	0.000000
O	0.000000	5.708958	1.902986
O	1.902986	3.805972	1.902986
O	1.902986	5.708958	0.000000
Cl	1.902986	5.708958	5.708958
N	0.000000	3.805972	3.805972
O	0.000000	5.708958	5.708958
O	1.902986	3.805972	5.708958
O	1.902986	5.708958	3.805972
Cl	5.708958	1.902986	1.902986
N	3.805972	0.000000	0.000000
O	3.805972	1.902986	1.902986
O	5.708958	0.000000	1.902986
O	5.708958	1.902986	0.000000
Cl	5.708958	1.902986	5.708958
N	3.805972	0.000000	3.805972
O	3.805972	1.902986	5.708958
O	5.708958	0.000000	5.708958
O	5.708958	1.902986	3.805972
Cl	5.708958	5.708958	1.902986
N	3.805972	3.805972	0.000000
O	3.805972	5.708958	1.902986
O	5.708958	3.805972	1.902986
O	5.708958	5.708958	0.000000
Cl	5.708958	5.708958	5.708958
N	3.805972	3.805972	3.805972
O	3.805972	5.708958	5.708958
O	5.708958	3.805972	5.708958
O	5.708958	5.708958	3.805972
