112

Ba	0.000000	0.000000	0.000000
Ba	2.297380	-2.294527	-2.294527
Cu	-1.148690	-1.147264	-3.441791
Cu	3.446070	1.147264	-1.147264
Cu	5.743450	-1.147264	-1.147264
Cu	1.148690	1.147264	-3.441791
O	3.702223	-0.889669	-0.889669
O	-0.892537	0.889669	-3.699386
O	0.892537	-0.889669	-3.699386
O	1.404843	1.404858	-1.404858
O	5.487297	0.889669	-0.889669
O	1.404843	3.184196	-3.184196
O	3.189917	3.184196	-1.404858
O	3.189917	1.404858	-3.184196
Ba	4.594760	4.589054	0.000000
Ba	6.892140	2.294527	-2.294527
Cu	3.446070	3.441791	-3.441791
Cu	8.040829	5.736318	-1.147264
Cu	10.338209	3.441791	-1.147264
Cu	5.743450	5.736318	-3.441791
O	8.296982	3.699386	-0.889669
O	3.702223	5.478723	-3.699386
O	5.487297	3.699386	-3.699386
O	5.999603	5.993913	-1.404858
O	10.082056	5.478723	-0.889669
O	5.999603	7.773250	-3.184196
O	7.784676	7.773250	-1.404858
O	7.784676	5.993913	-3.184196
Ba	-4.594760	0.000000	-4.589054
Ba	-2.297380	-2.294527	-6.883582
Cu	-5.743450	-1.147264	-8.030845
Cu	-1.148690	1.147264	-5.736318
Cu	1.148690	-1.147264	-5.736318
Cu	-3.446070	1.147264	-8.030845
O	-0.892537	-0.889669	-5.478723
O	-5.487297	0.889669	-8.288440
O	-3.702223	-0.889669	-8.288440
O	-3.189917	1.404858	-5.993913
O	0.892537	0.889669	-5.478723
O	-3.189917	3.184196	-7.773250
O	-1.404843	3.184196	-5.993913
O	-1.404843	1.404858	-7.773250
Ba	0.000000	4.589054	-4.589054
Ba	2.297380	2.294527	-6.883582
Cu	-1.148690	3.441791	-8.030845
Cu	3.446070	5.736318	-5.736318
Cu	5.743450	3.441791	-5.736318
Cu	1.148690	5.736318	-8.030845
O	3.702223	3.699386	-5.478723
O	-0.892537	5.478723	-8.288440
O	0.892537	3.699386	-8.288440
O	1.404843	5.993913	-5.993913
O	5.487297	5.478723	-5.478723
O	1.404843	7.773250	-7.773250
O	3.189917	7.773250	-5.993913
O	3.189917	5.993913	-7.773250
Ba	4.594760	-4.589054	0.000000
Ba	6.892140	-6.883582	-2.294527
Cu	3.446070	-5.736318	-3.441791
Cu	8.040829	-3.441791	-1.147264
Cu	10.338209	-5.736318	-1.147264
Cu	5.743450	-3.441791	-3.441791
O	8.296982	-5.478723	-0.889669
O	3.702223	-3.699386	-3.699386
O	5.487297	-5.478723	-3.699386
O	5.999603	-3.184196	-1.404858
O	10.082056	-3.699386	-0.889669
O	5.999603	-1.404858	-3.184196
O	7.784676	-1.404858	-1.404858
O	7.784676	-3.184196	-3.184196
Ba	9.189519	0.000000	0.000000
Ba	11.486899	-2.294527	-2.294527
Cu	8.040829	-1.147264	-3.441791
Cu	12.635589	1.147264	-1.147264
Cu	14.932969	-1.147264	-1.147264
Cu	10.338209	1.147264	-3.441791
O	12.891742	-0.889669	-0.889669
O	8.296982	0.889669	-3.699386
O	10.082056	-0.889669	-3.699386
O	10.594362	1.404858	-1.404858
O	14.676816	0.889669	-0.889669
O	10.594362	3.184196	-3.184196
O	12.379436	3.184196	-1.404858
O	12.379436	1.404858	-3.184196
Ba	0.000000	-4.589054	-4.589054
Ba	2.297380	-6.883582	-6.883582
Cu	-1.148690	-5.736318	-8.030845
Cu	3.446070	-3.441791	-5.736318
Cu	5.743450	-5.736318	-5.736318
Cu	1.148690	-3.441791	-8.030845
O	3.702223	-5.478723	-5.478723
O	-0.892537	-3.699386	-8.288440
O	0.892537	-5.478723	-8.288440
O	1.404843	-3.184196	-5.993913
O	5.487297	-3.699386	-5.478723
O	1.404843	-1.404858	-7.773250
O	3.189917	-1.404858	-5.993913
O	3.189917	-3.184196	-7.773250
Ba	4.594760	0.000000	-4.589054
Ba	6.892140	-2.294527	-6.883582
Cu	3.446070	-1.147264	-8.030845
Cu	8.040829	1.147264	-5.736318
Cu	10.338209	-1.147264	-5.736318
Cu	5.743450	1.147264	-8.030845
O	8.296982	-0.889669	-5.478723
O	3.702223	0.889669	-8.288440
O	5.487297	-0.889669	-8.288440
O	5.999603	1.404858	-5.993913
O	10.082056	0.889669	-5.478723
O	5.999603	3.184196	-7.773250
O	7.784676	3.184196	-5.993913
O	7.784676	1.404858	-7.773250
