112

Mg	0.981738	3.237677	1.869932
Mg	2.975368	2.013587	-1.417973
Sn	-0.133720	-0.177453	3.287904
Sn	-0.803774	2.803084	-1.530962
Sn	2.782328	-0.177453	1.756942
Sn	0.000000	0.000000	0.000000
O	3.037927	4.093511	-1.298802
O	3.735366	1.025240	3.458616
O	0.725822	1.025240	5.038665
O	0.919179	1.157752	1.750761
O	0.089634	4.050711	0.170712
O	0.221741	4.226024	-3.006657
O	3.867473	1.200552	0.281247
O	3.231284	4.226024	-4.586706
Mg	0.714299	2.882771	8.445740
Mg	2.707929	1.658682	5.157836
Sn	-0.401159	-0.532358	9.863712
Sn	-1.071214	2.448179	5.044846
Sn	2.514888	-0.532358	8.332750
Sn	-0.267439	-0.354905	6.575808
O	2.770488	3.738606	5.277006
O	3.467927	0.670334	10.034424
O	0.458383	0.670334	11.614473
O	0.651740	0.802847	8.326569
O	-0.177806	3.695806	6.746520
O	-0.045699	3.871119	3.569151
O	3.600034	0.845647	6.857055
O	2.963845	3.871119	1.989102
Mg	-0.625811	8.843846	-1.191993
Mg	1.367820	7.619756	-4.479897
Sn	-1.741268	5.428716	0.225980
Sn	-2.411323	8.409253	-4.592887
Sn	1.174779	5.428716	-1.304983
Sn	-1.607549	5.606169	-3.061925
O	1.430378	9.699680	-4.360727
O	2.127817	6.631409	0.396691
O	-0.881727	6.631409	1.976741
O	-0.688370	6.763921	-1.311163
O	-1.517915	9.656880	-2.891213
O	-1.385808	9.832193	-6.068582
O	2.259924	6.806721	-2.780677
O	1.623735	9.832193	-7.648631
Mg	-0.893250	8.488940	5.383815
Mg	1.100380	7.264851	2.095911
Sn	-2.008708	5.073811	6.801788
Sn	-2.678762	8.054348	1.982921
Sn	0.907340	5.073811	5.270825
Sn	-1.874988	5.251264	3.513884
O	1.162939	9.344775	2.215082
O	1.860378	6.276503	6.972500
O	-1.149166	6.276503	8.552549
O	-0.955809	6.409016	5.264645
O	-1.785354	9.301975	3.684596
O	-1.653247	9.477288	0.507227
O	1.992485	6.451816	3.795131
O	1.356296	9.477288	-1.072823
Mg	6.813832	3.237677	-1.191993
Mg	8.807463	2.013587	-4.479897
Sn	5.698375	-0.177453	0.225980
Sn	5.028320	2.803084	-4.592887
Sn	8.614422	-0.177453	-1.304983
Sn	5.832094	0.000000	-3.061925
O	8.870021	4.093511	-4.360727
O	9.567460	1.025240	0.396691
O	6.557916	1.025240	1.976741
O	6.751274	1.157752	-1.311163
O	5.921728	4.050711	-2.891213
O	6.053835	4.226024	-6.068582
O	9.699567	1.200552	-2.780677
O	9.063379	4.226024	-7.648631
Mg	6.546393	2.882771	5.383815
Mg	8.540024	1.658682	2.095911
Sn	5.430936	-0.532358	6.801788
Sn	4.760881	2.448179	1.982921
Sn	8.346983	-0.532358	5.270825
Sn	5.564655	-0.354905	3.513884
O	8.602582	3.738606	2.215082
O	9.300021	0.670334	6.972500
O	6.290477	0.670334	8.552549
O	6.483834	0.802847	5.264645
O	5.654289	3.695806	3.684596
O	5.786396	3.871119	0.507227
O	9.432128	0.845647	3.795131
O	8.795939	3.871119	-1.072823
Mg	5.206283	8.843846	-4.253918
Mg	7.199914	7.619756	-7.541822
Sn	4.090826	5.428716	-2.835945
Sn	3.420771	8.409253	-7.654811
Sn	7.006873	5.428716	-4.366907
Sn	4.224545	5.606169	-6.123849
O	7.262473	9.699680	-7.422651
O	7.959911	6.631409	-2.665233
O	4.950368	6.631409	-1.085184
O	5.143725	6.763921	-4.373088
O	4.314179	9.656880	-5.953137
O	4.446286	9.832193	-9.130506
O	8.092018	6.806721	-5.842602
O	7.455830	9.832193	-10.710555
Mg	4.938844	8.488940	2.321891
Mg	6.932475	7.264851	-0.966013
Sn	3.823387	5.073811	3.739863
Sn	3.153332	8.054348	-1.079003
Sn	6.739434	5.073811	2.208901
Sn	3.957106	5.251264	0.451959
O	6.995033	9.344775	-0.846843
O	7.692472	6.276503	3.910575
O	4.682928	6.276503	5.490624
O	4.876286	6.409016	2.202720
O	4.046740	9.301975	0.622671
O	4.178847	9.477288	-2.554698
O	7.824579	6.451816	0.733206
O	7.188391	9.477288	-4.134747
