40

O	0.000000	1.974112	1.974112
O	1.974112	0.000000	1.974112
O	1.974112	1.974112	0.000000
Sr	0.000000	0.000000	0.000000
Tc	1.974112	1.974112	1.974112
O	0.000000	1.974112	5.922337
O	1.974112	0.000000	5.922337
O	1.974112	1.974112	3.948225
Sr	0.000000	0.000000	3.948225
Tc	1.974112	1.974112	5.922337
O	0.000000	5.922337	1.974112
O	1.974112	3.948225	1.974112
O	1.974112	5.922337	0.000000
Sr	0.000000	3.948225	0.000000
Tc	1.974112	5.922337	1.974112
O	0.000000	5.922337	5.922337
O	1.974112	3.948225	5.922337
O	1.974112	5.922337	3.948225
Sr	0.000000	3.948225	3.948225
Tc	1.974112	5.922337	5.922337
O	3.948225	1.974112	1.974112
O	5.922337	0.000000	1.974112
O	5.922337	1.974112	0.000000
Sr	3.948225	0.000000	0.000000
Tc	5.922337	1.974112	1.974112
O	3.948225	1.974112	5.922337
O	5.922337	0.000000	5.922337
O	5.922337	1.974112	3.948225
Sr	3.948225	0.000000	3.948225
Tc	5.922337	1.974112	5.922337
O	3.948225	5.922337	1.974112
O	5.922337	3.948225	1.974112
O	5.922337	5.922337	0.000000
Sr	3.948225	3.948225	0.000000
Tc	5.922337	5.922337	1.974112
O	3.948225	5.922337	5.922337
O	5.922337	3.948225	5.922337
O	5.922337	5.922337	3.948225
Sr	3.948225	3.948225	3.948225
Tc	5.922337	5.922337	5.922337
