40

O	1.978650	1.978650	0.000000
O	0.000000	1.978650	1.978650
O	1.978650	0.000000	1.978650
Sr_sv	0.000000	0.000000	0.000000
Tc_pv	1.978650	1.978650	1.978650
O	1.978650	1.978650	3.957304
O	0.000000	1.978650	5.935954
O	1.978650	0.000000	5.935954
Sr_sv	0.000000	0.000000	3.957304
Tc_pv	1.978650	1.978650	5.935954
O	1.978650	5.935954	0.000000
O	0.000000	5.935954	1.978650
O	1.978650	3.957304	1.978650
Sr_sv	0.000000	3.957304	0.000000
Tc_pv	1.978650	5.935954	1.978650
O	1.978650	5.935954	3.957304
O	0.000000	5.935954	5.935954
O	1.978650	3.957304	5.935954
Sr_sv	0.000000	3.957304	3.957304
Tc_pv	1.978650	5.935954	5.935954
O	5.935954	1.978650	0.000000
O	3.957304	1.978650	1.978650
O	5.935954	0.000000	1.978650
Sr_sv	3.957304	0.000000	0.000000
Tc_pv	5.935954	1.978650	1.978650
O	5.935954	1.978650	3.957304
O	3.957304	1.978650	5.935954
O	5.935954	0.000000	5.935954
Sr_sv	3.957304	0.000000	3.957304
Tc_pv	5.935954	1.978650	5.935954
O	5.935954	5.935954	0.000000
O	3.957304	5.935954	1.978650
O	5.935954	3.957304	1.978650
Sr_sv	3.957304	3.957304	0.000000
Tc_pv	5.935954	5.935954	1.978650
O	5.935954	5.935954	3.957304
O	3.957304	5.935954	5.935954
O	5.935954	3.957304	5.935954
Sr_sv	3.957304	3.957304	3.957304
Tc_pv	5.935954	5.935954	5.935954
