40

Co	0.000000	0.000000	0.000000
O	1.885340	1.885340	0.000000
O	0.000000	1.885340	1.885340
O	1.885340	0.000000	1.885340
Zn	1.885340	1.885340	1.885340
Co	0.000000	0.000000	3.770684
O	1.885340	1.885340	3.770684
O	0.000000	1.885340	5.656024
O	1.885340	0.000000	5.656024
Zn	1.885340	1.885340	5.656024
Co	0.000000	3.770684	0.000000
O	1.885340	5.656024	0.000000
O	0.000000	5.656024	1.885340
O	1.885340	3.770684	1.885340
Zn	1.885340	5.656024	1.885340
Co	0.000000	3.770684	3.770684
O	1.885340	5.656024	3.770684
O	0.000000	5.656024	5.656024
O	1.885340	3.770684	5.656024
Zn	1.885340	5.656024	5.656024
Co	3.770684	0.000000	0.000000
O	5.656024	1.885340	0.000000
O	3.770684	1.885340	1.885340
O	5.656024	0.000000	1.885340
Zn	5.656024	1.885340	1.885340
Co	3.770684	0.000000	3.770684
O	5.656024	1.885340	3.770684
O	3.770684	1.885340	5.656024
O	5.656024	0.000000	5.656024
Zn	5.656024	1.885340	5.656024
Co	3.770684	3.770684	0.000000
O	5.656024	5.656024	0.000000
O	3.770684	5.656024	1.885340
O	5.656024	3.770684	1.885340
Zn	5.656024	5.656024	1.885340
Co	3.770684	3.770684	3.770684
O	5.656024	5.656024	3.770684
O	3.770684	5.656024	5.656024
O	5.656024	3.770684	5.656024
Zn	5.656024	5.656024	5.656024
