40

Al	0.000000	0.000000	0.000000
O	0.000000	2.071910	2.071910
O	2.071910	0.000000	2.071910
O	2.071910	2.071910	0.000000
Te	2.071910	2.071910	2.071910
Al	0.000000	0.000000	4.143821
O	0.000000	2.071910	6.215731
O	2.071910	0.000000	6.215731
O	2.071910	2.071910	4.143821
Te	2.071910	2.071910	6.215731
Al	0.000000	4.143821	0.000000
O	0.000000	6.215731	2.071910
O	2.071910	4.143821	2.071910
O	2.071910	6.215731	0.000000
Te	2.071910	6.215731	2.071910
Al	0.000000	4.143821	4.143821
O	0.000000	6.215731	6.215731
O	2.071910	4.143821	6.215731
O	2.071910	6.215731	4.143821
Te	2.071910	6.215731	6.215731
Al	4.143821	0.000000	0.000000
O	4.143821	2.071910	2.071910
O	6.215731	0.000000	2.071910
O	6.215731	2.071910	0.000000
Te	6.215731	2.071910	2.071910
Al	4.143821	0.000000	4.143821
O	4.143821	2.071910	6.215731
O	6.215731	0.000000	6.215731
O	6.215731	2.071910	4.143821
Te	6.215731	2.071910	6.215731
Al	4.143821	4.143821	0.000000
O	4.143821	6.215731	2.071910
O	6.215731	4.143821	2.071910
O	6.215731	6.215731	0.000000
Te	6.215731	6.215731	2.071910
Al	4.143821	4.143821	4.143821
O	4.143821	6.215731	6.215731
O	6.215731	4.143821	6.215731
O	6.215731	6.215731	4.143821
Te	6.215731	6.215731	6.215731
