40

Be	0.000000	0.000000	0.000000
O	0.000000	2.029412	2.029412
O	2.029412	0.000000	2.029412
O	2.029412	2.029412	0.000000
Sn	2.029412	2.029412	2.029412
Be	0.000000	0.000000	4.058825
O	0.000000	2.029412	6.088237
O	2.029412	0.000000	6.088237
O	2.029412	2.029412	4.058825
Sn	2.029412	2.029412	6.088237
Be	0.000000	4.058825	0.000000
O	0.000000	6.088237	2.029412
O	2.029412	4.058825	2.029412
O	2.029412	6.088237	0.000000
Sn	2.029412	6.088237	2.029412
Be	0.000000	4.058825	4.058825
O	0.000000	6.088237	6.088237
O	2.029412	4.058825	6.088237
O	2.029412	6.088237	4.058825
Sn	2.029412	6.088237	6.088237
Be	4.058825	0.000000	0.000000
O	4.058825	2.029412	2.029412
O	6.088237	0.000000	2.029412
O	6.088237	2.029412	0.000000
Sn	6.088237	2.029412	2.029412
Be	4.058825	0.000000	4.058825
O	4.058825	2.029412	6.088237
O	6.088237	0.000000	6.088237
O	6.088237	2.029412	4.058825
Sn	6.088237	2.029412	6.088237
Be	4.058825	4.058825	0.000000
O	4.058825	6.088237	2.029412
O	6.088237	4.058825	2.029412
O	6.088237	6.088237	0.000000
Sn	6.088237	6.088237	2.029412
Be	4.058825	4.058825	4.058825
O	4.058825	6.088237	6.088237
O	6.088237	4.058825	6.088237
O	6.088237	6.088237	4.058825
Sn	6.088237	6.088237	6.088237
