40

O	1.979460	1.979460	0.000000
O	0.000000	1.979460	1.979460
O	1.979460	0.000000	1.979460
Re	1.979460	1.979460	1.979460
Sm_3	0.000000	0.000000	0.000000
O	1.979460	1.979460	3.958915
O	0.000000	1.979460	5.938375
O	1.979460	0.000000	5.938375
Re	1.979460	1.979460	5.938375
Sm_3	0.000000	0.000000	3.958915
O	1.979460	5.938375	0.000000
O	0.000000	5.938375	1.979460
O	1.979460	3.958915	1.979460
Re	1.979460	5.938375	1.979460
Sm_3	0.000000	3.958915	0.000000
O	1.979460	5.938375	3.958915
O	0.000000	5.938375	5.938375
O	1.979460	3.958915	5.938375
Re	1.979460	5.938375	5.938375
Sm_3	0.000000	3.958915	3.958915
O	5.938375	1.979460	0.000000
O	3.958915	1.979460	1.979460
O	5.938375	0.000000	1.979460
Re	5.938375	1.979460	1.979460
Sm_3	3.958915	0.000000	0.000000
O	5.938375	1.979460	3.958915
O	3.958915	1.979460	5.938375
O	5.938375	0.000000	5.938375
Re	5.938375	1.979460	5.938375
Sm_3	3.958915	0.000000	3.958915
O	5.938375	5.938375	0.000000
O	3.958915	5.938375	1.979460
O	5.938375	3.958915	1.979460
Re	5.938375	5.938375	1.979460
Sm_3	3.958915	3.958915	0.000000
O	5.938375	5.938375	3.958915
O	3.958915	5.938375	5.938375
O	5.938375	3.958915	5.938375
Re	5.938375	5.938375	5.938375
Sm_3	3.958915	3.958915	3.958915
