40

C	0.000000	0.000000	0.000000
O	0.000000	1.945480	1.945480
O	1.945480	0.000000	1.945480
O	1.945480	1.945480	0.000000
Pd	1.945480	1.945480	1.945480
C	0.000000	0.000000	3.890961
O	0.000000	1.945480	5.836441
O	1.945480	0.000000	5.836441
O	1.945480	1.945480	3.890961
Pd	1.945480	1.945480	5.836441
C	0.000000	3.890961	0.000000
O	0.000000	5.836441	1.945480
O	1.945480	3.890961	1.945480
O	1.945480	5.836441	0.000000
Pd	1.945480	5.836441	1.945480
C	0.000000	3.890961	3.890961
O	0.000000	5.836441	5.836441
O	1.945480	3.890961	5.836441
O	1.945480	5.836441	3.890961
Pd	1.945480	5.836441	5.836441
C	3.890961	0.000000	0.000000
O	3.890961	1.945480	1.945480
O	5.836441	0.000000	1.945480
O	5.836441	1.945480	0.000000
Pd	5.836441	1.945480	1.945480
C	3.890961	0.000000	3.890961
O	3.890961	1.945480	5.836441
O	5.836441	0.000000	5.836441
O	5.836441	1.945480	3.890961
Pd	5.836441	1.945480	5.836441
C	3.890961	3.890961	0.000000
O	3.890961	5.836441	1.945480
O	5.836441	3.890961	1.945480
O	5.836441	5.836441	0.000000
Pd	5.836441	5.836441	1.945480
C	3.890961	3.890961	3.890961
O	3.890961	5.836441	5.836441
O	5.836441	3.890961	5.836441
O	5.836441	5.836441	3.890961
Pd	5.836441	5.836441	5.836441
