40

Al	1.883395	1.883395	1.883395
Au	0.000000	0.000000	0.000000
O	0.000000	1.883395	1.883395
O	1.883395	0.000000	1.883395
O	1.883395	1.883395	0.000000
Al	1.883395	1.883395	5.650186
Au	0.000000	0.000000	3.766791
O	0.000000	1.883395	5.650186
O	1.883395	0.000000	5.650186
O	1.883395	1.883395	3.766791
Al	1.883395	5.650186	1.883395
Au	0.000000	3.766791	0.000000
O	0.000000	5.650186	1.883395
O	1.883395	3.766791	1.883395
O	1.883395	5.650186	0.000000
Al	1.883395	5.650186	5.650186
Au	0.000000	3.766791	3.766791
O	0.000000	5.650186	5.650186
O	1.883395	3.766791	5.650186
O	1.883395	5.650186	3.766791
Al	5.650186	1.883395	1.883395
Au	3.766791	0.000000	0.000000
O	3.766791	1.883395	1.883395
O	5.650186	0.000000	1.883395
O	5.650186	1.883395	0.000000
Al	5.650186	1.883395	5.650186
Au	3.766791	0.000000	3.766791
O	3.766791	1.883395	5.650186
O	5.650186	0.000000	5.650186
O	5.650186	1.883395	3.766791
Al	5.650186	5.650186	1.883395
Au	3.766791	3.766791	0.000000
O	3.766791	5.650186	1.883395
O	5.650186	3.766791	1.883395
O	5.650186	5.650186	0.000000
Al	5.650186	5.650186	5.650186
Au	3.766791	3.766791	3.766791
O	3.766791	5.650186	5.650186
O	5.650186	3.766791	5.650186
O	5.650186	5.650186	3.766791
