40

As	0.000000	0.000000	0.000000
O	2.082028	2.082028	0.000000
O	2.082028	0.000000	2.082028
O	0.000000	2.082028	2.082028
Te	2.082028	2.082028	2.082028
As	0.000000	0.000000	4.164056
O	2.082028	2.082028	4.164056
O	2.082028	0.000000	6.246083
O	0.000000	2.082028	6.246083
Te	2.082028	2.082028	6.246083
As	0.000000	4.164056	0.000000
O	2.082028	6.246083	0.000000
O	2.082028	4.164056	2.082028
O	0.000000	6.246083	2.082028
Te	2.082028	6.246083	2.082028
As	0.000000	4.164056	4.164056
O	2.082028	6.246083	4.164056
O	2.082028	4.164056	6.246083
O	0.000000	6.246083	6.246083
Te	2.082028	6.246083	6.246083
As	4.164056	0.000000	0.000000
O	6.246083	2.082028	0.000000
O	6.246083	0.000000	2.082028
O	4.164056	2.082028	2.082028
Te	6.246083	2.082028	2.082028
As	4.164056	0.000000	4.164056
O	6.246083	2.082028	4.164056
O	6.246083	0.000000	6.246083
O	4.164056	2.082028	6.246083
Te	6.246083	2.082028	6.246083
As	4.164056	4.164056	0.000000
O	6.246083	6.246083	0.000000
O	6.246083	4.164056	2.082028
O	4.164056	6.246083	2.082028
Te	6.246083	6.246083	2.082028
As	4.164056	4.164056	4.164056
O	6.246083	6.246083	4.164056
O	6.246083	4.164056	6.246083
O	4.164056	6.246083	6.246083
Te	6.246083	6.246083	6.246083
