40

Ti	0.000000	0.000000	0.000000
Pb	1.986466	1.986466	1.988963
O	0.000000	0.000000	1.988963
O	1.986466	0.000000	0.000000
O	0.000000	1.986466	0.000000
Ti	0.000000	0.000000	3.977926
Pb	1.986466	1.986466	5.966889
O	0.000000	0.000000	5.966889
O	1.986466	0.000000	3.977926
O	0.000000	1.986466	3.977926
Ti	0.000000	3.972932	0.000000
Pb	1.986466	5.959398	1.988963
O	0.000000	3.972932	1.988963
O	1.986466	3.972932	0.000000
O	0.000000	5.959398	0.000000
Ti	0.000000	3.972932	3.977926
Pb	1.986466	5.959398	5.966889
O	0.000000	3.972932	5.966889
O	1.986466	3.972932	3.977926
O	0.000000	5.959398	3.977926
Ti	3.972932	0.000000	0.000000
Pb	5.959398	1.986466	1.988963
O	3.972932	0.000000	1.988963
O	5.959398	0.000000	0.000000
O	3.972932	1.986466	0.000000
Ti	3.972932	0.000000	3.977926
Pb	5.959398	1.986466	5.966889
O	3.972932	0.000000	5.966889
O	5.959398	0.000000	3.977926
O	3.972932	1.986466	3.977926
Ti	3.972932	3.972932	0.000000
Pb	5.959398	5.959398	1.988963
O	3.972932	3.972932	1.988963
O	5.959398	3.972932	0.000000
O	3.972932	5.959398	0.000000
Ti	3.972932	3.972932	3.977926
Pb	5.959398	5.959398	5.966889
O	3.972932	3.972932	5.966889
O	5.959398	3.972932	3.977926
O	3.972932	5.959398	3.977926
