40

Be	0.000000	0.000000	0.000000
Mo	1.954014	1.954014	1.954014
O	0.000000	1.954014	1.954014
O	1.954014	0.000000	1.954014
O	1.954014	1.954014	0.000000
Be	0.000000	0.000000	3.908027
Mo	1.954014	1.954014	5.862041
O	0.000000	1.954014	5.862041
O	1.954014	0.000000	5.862041
O	1.954014	1.954014	3.908027
Be	0.000000	3.908027	0.000000
Mo	1.954014	5.862041	1.954014
O	0.000000	5.862041	1.954014
O	1.954014	3.908027	1.954014
O	1.954014	5.862041	0.000000
Be	0.000000	3.908027	3.908027
Mo	1.954014	5.862041	5.862041
O	0.000000	5.862041	5.862041
O	1.954014	3.908027	5.862041
O	1.954014	5.862041	3.908027
Be	3.908027	0.000000	0.000000
Mo	5.862041	1.954014	1.954014
O	3.908027	1.954014	1.954014
O	5.862041	0.000000	1.954014
O	5.862041	1.954014	0.000000
Be	3.908027	0.000000	3.908027
Mo	5.862041	1.954014	5.862041
O	3.908027	1.954014	5.862041
O	5.862041	0.000000	5.862041
O	5.862041	1.954014	3.908027
Be	3.908027	3.908027	0.000000
Mo	5.862041	5.862041	1.954014
O	3.908027	5.862041	1.954014
O	5.862041	3.908027	1.954014
O	5.862041	5.862041	0.000000
Be	3.908027	3.908027	3.908027
Mo	5.862041	5.862041	5.862041
O	3.908027	5.862041	5.862041
O	5.862041	3.908027	5.862041
O	5.862041	5.862041	3.908027
