40

Br	2.013284	2.013284	2.013284
Mg	0.000000	0.000000	0.000000
O	0.000000	2.013284	2.013284
O	2.013284	0.000000	2.013284
O	2.013284	2.013284	0.000000
Br	2.013284	2.013284	6.039851
Mg	0.000000	0.000000	4.026568
O	0.000000	2.013284	6.039851
O	2.013284	0.000000	6.039851
O	2.013284	2.013284	4.026568
Br	2.013284	6.039851	2.013284
Mg	0.000000	4.026568	0.000000
O	0.000000	6.039851	2.013284
O	2.013284	4.026568	2.013284
O	2.013284	6.039851	0.000000
Br	2.013284	6.039851	6.039851
Mg	0.000000	4.026568	4.026568
O	0.000000	6.039851	6.039851
O	2.013284	4.026568	6.039851
O	2.013284	6.039851	4.026568
Br	6.039851	2.013284	2.013284
Mg	4.026568	0.000000	0.000000
O	4.026568	2.013284	2.013284
O	6.039851	0.000000	2.013284
O	6.039851	2.013284	0.000000
Br	6.039851	2.013284	6.039851
Mg	4.026568	0.000000	4.026568
O	4.026568	2.013284	6.039851
O	6.039851	0.000000	6.039851
O	6.039851	2.013284	4.026568
Br	6.039851	6.039851	2.013284
Mg	4.026568	4.026568	0.000000
O	4.026568	6.039851	2.013284
O	6.039851	4.026568	2.013284
O	6.039851	6.039851	0.000000
Br	6.039851	6.039851	6.039851
Mg	4.026568	4.026568	4.026568
O	4.026568	6.039851	6.039851
O	6.039851	4.026568	6.039851
O	6.039851	6.039851	4.026568
