40

Dy	0.000000	0.000000	0.000000
Na	1.957726	1.957726	1.957726
O	1.957726	1.957726	0.000000
O	1.957726	0.000000	1.957726
O	0.000000	1.957726	1.957726
Dy	0.000000	0.000000	3.915444
Na	1.957726	1.957726	5.873170
O	1.957726	1.957726	3.915444
O	1.957726	0.000000	5.873170
O	0.000000	1.957726	5.873170
Dy	0.000000	3.915444	0.000000
Na	1.957726	5.873170	1.957726
O	1.957726	5.873170	0.000000
O	1.957726	3.915444	1.957726
O	0.000000	5.873170	1.957726
Dy	0.000000	3.915444	3.915444
Na	1.957726	5.873170	5.873170
O	1.957726	5.873170	3.915444
O	1.957726	3.915444	5.873170
O	0.000000	5.873170	5.873170
Dy	3.915444	0.000000	0.000000
Na	5.873170	1.957726	1.957726
O	5.873170	1.957726	0.000000
O	5.873170	0.000000	1.957726
O	3.915444	1.957726	1.957726
Dy	3.915444	0.000000	3.915444
Na	5.873170	1.957726	5.873170
O	5.873170	1.957726	3.915444
O	5.873170	0.000000	5.873170
O	3.915444	1.957726	5.873170
Dy	3.915444	3.915444	0.000000
Na	5.873170	5.873170	1.957726
O	5.873170	5.873170	0.000000
O	5.873170	3.915444	1.957726
O	3.915444	5.873170	1.957726
Dy	3.915444	3.915444	3.915444
Na	5.873170	5.873170	5.873170
O	5.873170	5.873170	3.915444
O	5.873170	3.915444	5.873170
O	3.915444	5.873170	5.873170
