112

Al	0.000000	0.000000	0.000000
Al	2.303439	-2.304508	-2.304508
O	3.353631	-1.253891	-1.253891
O	-1.253247	1.253891	-3.355125
O	1.253247	-1.253891	-3.355125
O	1.050192	1.050617	-1.050617
O	5.860124	1.253891	-1.253891
O	1.050192	3.558399	-3.558399
O	3.556685	3.558399	-1.050617
O	3.556685	1.050617	-3.558399
Sn	-1.151719	-1.152254	-3.456762
Sn	3.455158	1.152254	-1.152254
Sn	5.758597	-1.152254	-1.152254
Sn	1.151719	1.152254	-3.456762
Al	4.606878	4.609017	0.000000
Al	6.910317	2.304508	-2.304508
O	7.960509	3.355125	-1.253891
O	3.353631	5.862908	-3.355125
O	5.860124	3.355125	-3.355125
O	5.657070	5.659634	-1.050617
O	10.467002	5.862908	-1.253891
O	5.657070	8.167416	-3.558399
O	8.163563	8.167416	-1.050617
O	8.163563	5.659634	-3.558399
Sn	3.455158	3.456762	-3.456762
Sn	8.062036	5.761271	-1.152254
Sn	10.365475	3.456762	-1.152254
Sn	5.758597	5.761271	-3.456762
Al	-4.606878	0.000000	-4.609017
Al	-2.303439	-2.304508	-6.913525
O	-1.253247	-1.253891	-5.862908
O	-5.860124	1.253891	-7.964142
O	-3.353631	-1.253891	-7.964142
O	-3.556685	1.050617	-5.659634
O	1.253247	1.253891	-5.862908
O	-3.556685	3.558399	-8.167416
O	-1.050192	3.558399	-5.659634
O	-1.050192	1.050617	-8.167416
Sn	-5.758597	-1.152254	-8.065779
Sn	-1.151719	1.152254	-5.761271
Sn	1.151719	-1.152254	-5.761271
Sn	-3.455158	1.152254	-8.065779
Al	0.000000	4.609017	-4.609017
Al	2.303439	2.304508	-6.913525
O	3.353631	3.355125	-5.862908
O	-1.253247	5.862908	-7.964142
O	1.253247	3.355125	-7.964142
O	1.050192	5.659634	-5.659634
O	5.860124	5.862908	-5.862908
O	1.050192	8.167416	-8.167416
O	3.556685	8.167416	-5.659634
O	3.556685	5.659634	-8.167416
Sn	-1.151719	3.456762	-8.065779
Sn	3.455158	5.761271	-5.761271
Sn	5.758597	3.456762	-5.761271
Sn	1.151719	5.761271	-8.065779
Al	4.606878	-4.609017	0.000000
Al	6.910317	-6.913525	-2.304508
O	7.960509	-5.862908	-1.253891
O	3.353631	-3.355125	-3.355125
O	5.860124	-5.862908	-3.355125
O	5.657070	-3.558399	-1.050617
O	10.467002	-3.355125	-1.253891
O	5.657070	-1.050617	-3.558399
O	8.163563	-1.050617	-1.050617
O	8.163563	-3.558399	-3.558399
Sn	3.455158	-5.761271	-3.456762
Sn	8.062036	-3.456762	-1.152254
Sn	10.365475	-5.761271	-1.152254
Sn	5.758597	-3.456762	-3.456762
Al	9.213756	0.000000	0.000000
Al	11.517194	-2.304508	-2.304508
O	12.567387	-1.253891	-1.253891
O	7.960509	1.253891	-3.355125
O	10.467002	-1.253891	-3.355125
O	10.263948	1.050617	-1.050617
O	15.073880	1.253891	-1.253891
O	10.263948	3.558399	-3.558399
O	12.770441	3.558399	-1.050617
O	12.770441	1.050617	-3.558399
Sn	8.062036	-1.152254	-3.456762
Sn	12.668914	1.152254	-1.152254
Sn	14.972353	-1.152254	-1.152254
Sn	10.365475	1.152254	-3.456762
Al	0.000000	-4.609017	-4.609017
Al	2.303439	-6.913525	-6.913525
O	3.353631	-5.862908	-5.862908
O	-1.253247	-3.355125	-7.964142
O	1.253247	-5.862908	-7.964142
O	1.050192	-3.558399	-5.659634
O	5.860124	-3.355125	-5.862908
O	1.050192	-1.050617	-8.167416
O	3.556685	-1.050617	-5.659634
O	3.556685	-3.558399	-8.167416
Sn	-1.151719	-5.761271	-8.065779
Sn	3.455158	-3.456762	-5.761271
Sn	5.758597	-5.761271	-5.761271
Sn	1.151719	-3.456762	-8.065779
Al	4.606878	0.000000	-4.609017
Al	6.910317	-2.304508	-6.913525
O	7.960509	-1.253891	-5.862908
O	3.353631	1.253891	-7.964142
O	5.860124	-1.253891	-7.964142
O	5.657070	1.050617	-5.659634
O	10.467002	1.253891	-5.862908
O	5.657070	3.558399	-8.167416
O	8.163563	3.558399	-5.659634
O	8.163563	1.050617	-8.167416
Sn	3.455158	-1.152254	-8.065779
Sn	8.062036	1.152254	-5.761271
Sn	10.365475	-1.152254	-5.761271
Sn	5.758597	1.152254	-8.065779
