40

K	2.147303	2.147303	2.147303
O	2.147303	2.147303	0.000000
O	2.147303	0.000000	2.147303
O	0.000000	2.147303	2.147303
Sn	0.000000	0.000000	0.000000
K	2.147303	2.147303	6.441917
O	2.147303	2.147303	4.294613
O	2.147303	0.000000	6.441917
O	0.000000	2.147303	6.441917
Sn	0.000000	0.000000	4.294613
K	2.147303	6.441917	2.147303
O	2.147303	6.441917	0.000000
O	2.147303	4.294613	2.147303
O	0.000000	6.441917	2.147303
Sn	0.000000	4.294613	0.000000
K	2.147303	6.441917	6.441917
O	2.147303	6.441917	4.294613
O	2.147303	4.294613	6.441917
O	0.000000	6.441917	6.441917
Sn	0.000000	4.294613	4.294613
K	6.441917	2.147303	2.147303
O	6.441917	2.147303	0.000000
O	6.441917	0.000000	2.147303
O	4.294613	2.147303	2.147303
Sn	4.294613	0.000000	0.000000
K	6.441917	2.147303	6.441917
O	6.441917	2.147303	4.294613
O	6.441917	0.000000	6.441917
O	4.294613	2.147303	6.441917
Sn	4.294613	0.000000	4.294613
K	6.441917	6.441917	2.147303
O	6.441917	6.441917	0.000000
O	6.441917	4.294613	2.147303
O	4.294613	6.441917	2.147303
Sn	4.294613	4.294613	0.000000
K	6.441917	6.441917	6.441917
O	6.441917	6.441917	4.294613
O	6.441917	4.294613	6.441917
O	4.294613	6.441917	6.441917
Sn	4.294613	4.294613	4.294613
