40

O	0.000000	2.024284	2.024284
O	2.024284	0.000000	2.024284
O	2.024284	2.024284	0.000000
Sn	0.000000	0.000000	0.000000
Tc	2.024284	2.024284	2.024284
O	0.000000	2.024284	6.072852
O	2.024284	0.000000	6.072852
O	2.024284	2.024284	4.048568
Sn	0.000000	0.000000	4.048568
Tc	2.024284	2.024284	6.072852
O	0.000000	6.072852	2.024284
O	2.024284	4.048568	2.024284
O	2.024284	6.072852	0.000000
Sn	0.000000	4.048568	0.000000
Tc	2.024284	6.072852	2.024284
O	0.000000	6.072852	6.072852
O	2.024284	4.048568	6.072852
O	2.024284	6.072852	4.048568
Sn	0.000000	4.048568	4.048568
Tc	2.024284	6.072852	6.072852
O	4.048568	2.024284	2.024284
O	6.072852	0.000000	2.024284
O	6.072852	2.024284	0.000000
Sn	4.048568	0.000000	0.000000
Tc	6.072852	2.024284	2.024284
O	4.048568	2.024284	6.072852
O	6.072852	0.000000	6.072852
O	6.072852	2.024284	4.048568
Sn	4.048568	0.000000	4.048568
Tc	6.072852	2.024284	6.072852
O	4.048568	6.072852	2.024284
O	6.072852	4.048568	2.024284
O	6.072852	6.072852	0.000000
Sn	4.048568	4.048568	0.000000
Tc	6.072852	6.072852	2.024284
O	4.048568	6.072852	6.072852
O	6.072852	4.048568	6.072852
O	6.072852	6.072852	4.048568
Sn	4.048568	4.048568	4.048568
Tc	6.072852	6.072852	6.072852
