112

O	-1.033422	1.032604	-4.126249
O	4.126012	-1.032604	-1.032604
O	1.033422	-1.032604	-4.126249
O	1.546300	1.546818	-1.546818
O	6.192847	1.032604	-1.032604
O	1.546300	3.612035	-3.612035
O	3.613134	3.612035	-1.546818
O	3.613134	1.546818	-3.612035
Pt	0.000000	0.000000	0.000000
Pt	2.579712	-2.579421	-2.579421
Th	-1.289856	-1.289716	-3.869137
Th	1.289856	1.289716	-3.869137
Th	3.869568	1.289716	-1.289716
Th	6.449290	-1.289716	-1.289716
O	4.126008	6.191456	-4.126249
O	9.285442	4.126249	-1.032604
O	6.192853	4.126249	-4.126249
O	6.705730	6.705670	-1.546818
O	11.352277	6.191456	-1.032604
O	6.705730	8.770888	-3.612035
O	8.772565	8.770887	-1.546818
O	8.772565	6.705670	-3.612035
Pt	5.159430	5.158852	0.000000
Pt	7.739142	2.579431	-2.579421
Th	3.869574	3.869137	-3.869137
Th	6.449286	6.448568	-3.869137
Th	9.028998	6.448568	-1.289716
Th	11.608721	3.869137	-1.289716
O	-6.192853	1.032604	-9.285102
O	-1.033418	-1.032604	-6.191456
O	-4.126008	-1.032604	-9.285102
O	-3.613130	1.546818	-6.705670
O	1.033416	1.032604	-6.191456
O	-3.613130	3.612035	-8.770888
O	-1.546296	3.612035	-6.705670
O	-1.546296	1.546818	-8.770888
Pt	-5.159430	0.000000	-5.158852
Pt	-2.579718	-2.579421	-7.738274
Th	-6.449286	-1.289716	-9.027990
Th	-3.869574	1.289716	-9.027990
Th	-1.289862	1.289716	-6.448568
Th	1.289860	-1.289716	-6.448568
O	-1.033422	6.191456	-9.285102
O	4.126012	4.126249	-6.191456
O	1.033422	4.126249	-9.285102
O	1.546300	6.705670	-6.705670
O	6.192847	6.191456	-6.191456
O	1.546300	8.770888	-8.770888
O	3.613134	8.770887	-6.705670
O	3.613134	6.705670	-8.770888
Pt	0.000000	5.158852	-5.158852
Pt	2.579712	2.579431	-7.738274
Th	-1.289856	3.869137	-9.027990
Th	1.289856	6.448568	-9.027990
Th	3.869568	6.448568	-6.448568
Th	6.449290	3.869137	-6.448568
O	4.126008	-4.126249	-4.126249
O	9.285442	-6.191456	-1.032604
O	6.192853	-6.191456	-4.126249
O	6.705730	-3.612035	-1.546818
O	11.352277	-4.126249	-1.032604
O	6.705730	-1.546817	-3.612035
O	8.772565	-1.546817	-1.546818
O	8.772565	-3.612035	-3.612035
Pt	5.159430	-5.158852	0.000000
Pt	7.739142	-7.738274	-2.579421
Th	3.869574	-6.448568	-3.869137
Th	6.449286	-3.869137	-3.869137
Th	9.028998	-3.869137	-1.289716
Th	11.608721	-6.448568	-1.289716
O	9.285438	1.032604	-4.126249
O	14.444873	-1.032604	-1.032604
O	11.352283	-1.032604	-4.126249
O	11.865160	1.546818	-1.546818
O	16.511707	1.032604	-1.032604
O	11.865160	3.612035	-3.612035
O	13.931995	3.612035	-1.546818
O	13.931995	1.546818	-3.612035
Pt	10.318861	0.000000	0.000000
Pt	12.898573	-2.579421	-2.579421
Th	9.029004	-1.289716	-3.869137
Th	11.608717	1.289716	-3.869137
Th	14.188429	1.289716	-1.289716
Th	16.768151	-1.289716	-1.289716
O	-1.033422	-4.126249	-9.285102
O	4.126012	-6.191456	-6.191456
O	1.033422	-6.191456	-9.285102
O	1.546300	-3.612035	-6.705670
O	6.192847	-4.126249	-6.191456
O	1.546300	-1.546817	-8.770888
O	3.613134	-1.546817	-6.705670
O	3.613134	-3.612035	-8.770888
Pt	0.000000	-5.158852	-5.158852
Pt	2.579712	-7.738274	-7.738274
Th	-1.289856	-6.448568	-9.027990
Th	1.289856	-3.869137	-9.027990
Th	3.869568	-3.869137	-6.448568
Th	6.449290	-6.448568	-6.448568
O	4.126008	1.032604	-9.285102
O	9.285442	-1.032604	-6.191456
O	6.192853	-1.032604	-9.285102
O	6.705730	1.546818	-6.705670
O	11.352277	1.032604	-6.191456
O	6.705730	3.612035	-8.770888
O	8.772565	3.612035	-6.705670
O	8.772565	1.546818	-8.770888
Pt	5.159430	0.000000	-5.158852
Pt	7.739142	-2.579421	-7.738274
Th	3.869574	-1.289716	-9.027990
Th	6.449286	1.289716	-9.027990
Th	9.028998	1.289716	-6.448568
Th	11.608721	-1.289716	-6.448568
