40

Ce	0.000000	0.000000	0.000000
O	2.096594	2.096594	0.000000
O	2.096594	0.000000	2.096594
O	0.000000	2.096594	2.096594
Yb	2.096594	2.096594	2.096594
Ce	0.000000	0.000000	4.193188
O	2.096594	2.096594	4.193188
O	2.096594	0.000000	6.289782
O	0.000000	2.096594	6.289782
Yb	2.096594	2.096594	6.289782
Ce	0.000000	4.193188	0.000000
O	2.096594	6.289782	0.000000
O	2.096594	4.193188	2.096594
O	0.000000	6.289782	2.096594
Yb	2.096594	6.289782	2.096594
Ce	0.000000	4.193188	4.193188
O	2.096594	6.289782	4.193188
O	2.096594	4.193188	6.289782
O	0.000000	6.289782	6.289782
Yb	2.096594	6.289782	6.289782
Ce	4.193188	0.000000	0.000000
O	6.289782	2.096594	0.000000
O	6.289782	0.000000	2.096594
O	4.193188	2.096594	2.096594
Yb	6.289782	2.096594	2.096594
Ce	4.193188	0.000000	4.193188
O	6.289782	2.096594	4.193188
O	6.289782	0.000000	6.289782
O	4.193188	2.096594	6.289782
Yb	6.289782	2.096594	6.289782
Ce	4.193188	4.193188	0.000000
O	6.289782	6.289782	0.000000
O	6.289782	4.193188	2.096594
O	4.193188	6.289782	2.096594
Yb	6.289782	6.289782	2.096594
Ce	4.193188	4.193188	4.193188
O	6.289782	6.289782	4.193188
O	6.289782	4.193188	6.289782
O	4.193188	6.289782	6.289782
Yb	6.289782	6.289782	6.289782
