40

Ga	0.000000	0.000000	0.000000
O	0.000000	2.088087	2.088087
O	2.088087	0.000000	2.088087
O	2.088087	2.088087	0.000000
Zr	2.088087	2.088087	2.088087
Ga	0.000000	0.000000	4.176175
O	0.000000	2.088087	6.264262
O	2.088087	0.000000	6.264262
O	2.088087	2.088087	4.176175
Zr	2.088087	2.088087	6.264262
Ga	0.000000	4.176175	0.000000
O	0.000000	6.264262	2.088087
O	2.088087	4.176175	2.088087
O	2.088087	6.264262	0.000000
Zr	2.088087	6.264262	2.088087
Ga	0.000000	4.176175	4.176175
O	0.000000	6.264262	6.264262
O	2.088087	4.176175	6.264262
O	2.088087	6.264262	4.176175
Zr	2.088087	6.264262	6.264262
Ga	4.176175	0.000000	0.000000
O	4.176175	2.088087	2.088087
O	6.264262	0.000000	2.088087
O	6.264262	2.088087	0.000000
Zr	6.264262	2.088087	2.088087
Ga	4.176175	0.000000	4.176175
O	4.176175	2.088087	6.264262
O	6.264262	0.000000	6.264262
O	6.264262	2.088087	4.176175
Zr	6.264262	2.088087	6.264262
Ga	4.176175	4.176175	0.000000
O	4.176175	6.264262	2.088087
O	6.264262	4.176175	2.088087
O	6.264262	6.264262	0.000000
Zr	6.264262	6.264262	2.088087
Ga	4.176175	4.176175	4.176175
O	4.176175	6.264262	6.264262
O	6.264262	4.176175	6.264262
O	6.264262	6.264262	4.176175
Zr	6.264262	6.264262	6.264262
