112

Eu	0.000000	0.000000	0.000000
Eu	2.422134	-2.422784	-2.422784
O	3.756365	-1.087555	-1.087555
O	-1.087903	1.087555	-3.758014
O	1.087903	-1.087555	-3.758014
O	1.334231	1.335229	-1.335229
O	5.932171	1.087555	-1.087555
O	1.334231	3.510340	-3.510340
O	3.510037	3.510340	-1.335229
O	3.510037	1.335229	-3.510340
Yb	-1.211067	-1.211392	-3.634177
Yb	3.633201	1.211392	-1.211392
Yb	6.055335	-1.211392	-1.211392
Yb	1.211067	1.211392	-3.634177
Eu	4.844268	4.845569	0.000000
Eu	7.266402	2.422784	-2.422784
O	8.600633	3.758014	-1.087555
O	3.756365	5.933124	-3.758014
O	5.932171	3.758014	-3.758014
O	6.178499	6.180798	-1.335229
O	10.776439	5.933124	-1.087555
O	6.178499	8.355909	-3.510340
O	8.354305	8.355909	-1.335229
O	8.354305	6.180798	-3.510340
Yb	3.633201	3.634177	-3.634177
Yb	8.477469	6.056961	-1.211392
Yb	10.899603	3.634177	-1.211392
Yb	6.055335	6.056961	-3.634177
Eu	-4.844268	0.000000	-4.845569
Eu	-2.422134	-2.422784	-7.268353
O	-1.087903	-1.087555	-5.933124
O	-5.932171	1.087555	-8.603583
O	-3.756365	-1.087555	-8.603583
O	-3.510037	1.335229	-6.180798
O	1.087903	1.087555	-5.933124
O	-3.510037	3.510340	-8.355909
O	-1.334231	3.510340	-6.180798
O	-1.334231	1.335229	-8.355909
Yb	-6.055335	-1.211392	-8.479746
Yb	-1.211067	1.211392	-6.056961
Yb	1.211067	-1.211392	-6.056961
Yb	-3.633201	1.211392	-8.479746
Eu	0.000000	4.845569	-4.845569
Eu	2.422134	2.422784	-7.268353
O	3.756365	3.758014	-5.933124
O	-1.087903	5.933124	-8.603583
O	1.087903	3.758014	-8.603583
O	1.334231	6.180798	-6.180798
O	5.932171	5.933124	-5.933124
O	1.334231	8.355909	-8.355909
O	3.510037	8.355909	-6.180798
O	3.510037	6.180798	-8.355909
Yb	-1.211067	3.634177	-8.479746
Yb	3.633201	6.056961	-6.056961
Yb	6.055335	3.634177	-6.056961
Yb	1.211067	6.056961	-8.479746
Eu	4.844268	-4.845569	0.000000
Eu	7.266402	-7.268353	-2.422784
O	8.600633	-5.933124	-1.087555
O	3.756365	-3.758014	-3.758014
O	5.932171	-5.933124	-3.758014
O	6.178499	-3.510340	-1.335229
O	10.776439	-3.758014	-1.087555
O	6.178499	-1.335229	-3.510340
O	8.354305	-1.335229	-1.335229
O	8.354305	-3.510340	-3.510340
Yb	3.633201	-6.056961	-3.634177
Yb	8.477469	-3.634177	-1.211392
Yb	10.899603	-6.056961	-1.211392
Yb	6.055335	-3.634177	-3.634177
Eu	9.688536	0.000000	0.000000
Eu	12.110670	-2.422784	-2.422784
O	13.444901	-1.087555	-1.087555
O	8.600633	1.087555	-3.758014
O	10.776439	-1.087555	-3.758014
O	11.022767	1.335229	-1.335229
O	15.620707	1.087555	-1.087555
O	11.022767	3.510340	-3.510340
O	13.198573	3.510340	-1.335229
O	13.198573	1.335229	-3.510340
Yb	8.477469	-1.211392	-3.634177
Yb	13.321737	1.211392	-1.211392
Yb	15.743871	-1.211392	-1.211392
Yb	10.899603	1.211392	-3.634177
Eu	0.000000	-4.845569	-4.845569
Eu	2.422134	-7.268353	-7.268353
O	3.756365	-5.933124	-5.933124
O	-1.087903	-3.758014	-8.603583
O	1.087903	-5.933124	-8.603583
O	1.334231	-3.510340	-6.180798
O	5.932171	-3.758014	-5.933124
O	1.334231	-1.335229	-8.355909
O	3.510037	-1.335229	-6.180798
O	3.510037	-3.510340	-8.355909
Yb	-1.211067	-6.056961	-8.479746
Yb	3.633201	-3.634177	-6.056961
Yb	6.055335	-6.056961	-6.056961
Yb	1.211067	-3.634177	-8.479746
Eu	4.844268	0.000000	-4.845569
Eu	7.266402	-2.422784	-7.268353
O	8.600633	-1.087555	-5.933124
O	3.756365	1.087555	-8.603583
O	5.932171	-1.087555	-8.603583
O	6.178499	1.335229	-6.180798
O	10.776439	1.087555	-5.933124
O	6.178499	3.510340	-8.355909
O	8.354305	3.510340	-6.180798
O	8.354305	1.335229	-8.355909
Yb	3.633201	-1.211392	-8.479746
Yb	8.477469	1.211392	-6.056961
Yb	10.899603	-1.211392	-6.056961
Yb	6.055335	1.211392	-8.479746
