40

Hg	0.000000	0.000000	0.000000
Na	2.040569	2.040569	2.040569
O	2.040569	2.040569	0.000000
O	2.040569	0.000000	2.040569
O	0.000000	2.040569	2.040569
Hg	0.000000	0.000000	4.081142
Na	2.040569	2.040569	6.121711
O	2.040569	2.040569	4.081142
O	2.040569	0.000000	6.121711
O	0.000000	2.040569	6.121711
Hg	0.000000	4.081142	0.000000
Na	2.040569	6.121711	2.040569
O	2.040569	6.121711	0.000000
O	2.040569	4.081142	2.040569
O	0.000000	6.121711	2.040569
Hg	0.000000	4.081142	4.081142
Na	2.040569	6.121711	6.121711
O	2.040569	6.121711	4.081142
O	2.040569	4.081142	6.121711
O	0.000000	6.121711	6.121711
Hg	4.081142	0.000000	0.000000
Na	6.121711	2.040569	2.040569
O	6.121711	2.040569	0.000000
O	6.121711	0.000000	2.040569
O	4.081142	2.040569	2.040569
Hg	4.081142	0.000000	4.081142
Na	6.121711	2.040569	6.121711
O	6.121711	2.040569	4.081142
O	6.121711	0.000000	6.121711
O	4.081142	2.040569	6.121711
Hg	4.081142	4.081142	0.000000
Na	6.121711	6.121711	2.040569
O	6.121711	6.121711	0.000000
O	6.121711	4.081142	2.040569
O	4.081142	6.121711	2.040569
Hg	4.081142	4.081142	4.081142
Na	6.121711	6.121711	6.121711
O	6.121711	6.121711	4.081142
O	6.121711	4.081142	6.121711
O	4.081142	6.121711	6.121711
