40

Mn	1.892352	1.892352	1.892352
O	1.892352	1.892352	0.000000
O	1.892352	0.000000	1.892352
O	0.000000	1.892352	1.892352
V	0.000000	0.000000	0.000000
Mn	1.892352	1.892352	5.677055
O	1.892352	1.892352	3.784703
O	1.892352	0.000000	5.677055
O	0.000000	1.892352	5.677055
V	0.000000	0.000000	3.784703
Mn	1.892352	5.677055	1.892352
O	1.892352	5.677055	0.000000
O	1.892352	3.784703	1.892352
O	0.000000	5.677055	1.892352
V	0.000000	3.784703	0.000000
Mn	1.892352	5.677055	5.677055
O	1.892352	5.677055	3.784703
O	1.892352	3.784703	5.677055
O	0.000000	5.677055	5.677055
V	0.000000	3.784703	3.784703
Mn	5.677055	1.892352	1.892352
O	5.677055	1.892352	0.000000
O	5.677055	0.000000	1.892352
O	3.784703	1.892352	1.892352
V	3.784703	0.000000	0.000000
Mn	5.677055	1.892352	5.677055
O	5.677055	1.892352	3.784703
O	5.677055	0.000000	5.677055
O	3.784703	1.892352	5.677055
V	3.784703	0.000000	3.784703
Mn	5.677055	5.677055	1.892352
O	5.677055	5.677055	0.000000
O	5.677055	3.784703	1.892352
O	3.784703	5.677055	1.892352
V	3.784703	3.784703	0.000000
Mn	5.677055	5.677055	5.677055
O	5.677055	5.677055	3.784703
O	5.677055	3.784703	5.677055
O	3.784703	5.677055	5.677055
V	3.784703	3.784703	3.784703
