40

Co	0.000000	0.000000	0.000000
O	1.972300	1.972300	0.000000
O	1.972300	0.000000	1.972300
O	0.000000	1.972300	1.972300
Pd	1.972300	1.972300	1.972300
Co	0.000000	0.000000	3.944599
O	1.972300	1.972300	3.944599
O	1.972300	0.000000	5.916899
O	0.000000	1.972300	5.916899
Pd	1.972300	1.972300	5.916899
Co	0.000000	3.944599	0.000000
O	1.972300	5.916899	0.000000
O	1.972300	3.944599	1.972300
O	0.000000	5.916899	1.972300
Pd	1.972300	5.916899	1.972300
Co	0.000000	3.944599	3.944599
O	1.972300	5.916899	3.944599
O	1.972300	3.944599	5.916899
O	0.000000	5.916899	5.916899
Pd	1.972300	5.916899	5.916899
Co	3.944599	0.000000	0.000000
O	5.916899	1.972300	0.000000
O	5.916899	0.000000	1.972300
O	3.944599	1.972300	1.972300
Pd	5.916899	1.972300	1.972300
Co	3.944599	0.000000	3.944599
O	5.916899	1.972300	3.944599
O	5.916899	0.000000	5.916899
O	3.944599	1.972300	5.916899
Pd	5.916899	1.972300	5.916899
Co	3.944599	3.944599	0.000000
O	5.916899	5.916899	0.000000
O	5.916899	3.944599	1.972300
O	3.944599	5.916899	1.972300
Pd	5.916899	5.916899	1.972300
Co	3.944599	3.944599	3.944599
O	5.916899	5.916899	3.944599
O	5.916899	3.944599	5.916899
O	3.944599	5.916899	5.916899
Pd	5.916899	5.916899	5.916899
