40

Co	0.000000	0.000000	0.000000
O	1.946220	0.000000	1.946220
O	0.000000	1.946220	1.946220
O	1.946220	1.946220	0.000000
Pd	1.946220	1.946220	1.946220
Co	0.000000	0.000000	3.892432
O	1.946220	0.000000	5.838652
O	0.000000	1.946220	5.838652
O	1.946220	1.946220	3.892432
Pd	1.946220	1.946220	5.838652
Co	0.000000	3.892432	0.000000
O	1.946220	3.892432	1.946220
O	0.000000	5.838652	1.946220
O	1.946220	5.838652	0.000000
Pd	1.946220	5.838652	1.946220
Co	0.000000	3.892432	3.892432
O	1.946220	3.892432	5.838652
O	0.000000	5.838652	5.838652
O	1.946220	5.838652	3.892432
Pd	1.946220	5.838652	5.838652
Co	3.892432	0.000000	0.000000
O	5.838652	0.000000	1.946220
O	3.892432	1.946220	1.946220
O	5.838652	1.946220	0.000000
Pd	5.838652	1.946220	1.946220
Co	3.892432	0.000000	3.892432
O	5.838652	0.000000	5.838652
O	3.892432	1.946220	5.838652
O	5.838652	1.946220	3.892432
Pd	5.838652	1.946220	5.838652
Co	3.892432	3.892432	0.000000
O	5.838652	3.892432	1.946220
O	3.892432	5.838652	1.946220
O	5.838652	5.838652	0.000000
Pd	5.838652	5.838652	1.946220
Co	3.892432	3.892432	3.892432
O	5.838652	3.892432	5.838652
O	3.892432	5.838652	5.838652
O	5.838652	5.838652	3.892432
Pd	5.838652	5.838652	5.838652
