40

Co	1.877587	1.877587	1.877587
O	0.000000	1.877587	1.877587
O	1.877587	0.000000	1.877587
O	1.877587	1.877587	0.000000
Pd	0.000000	0.000000	0.000000
Co	1.877587	1.877587	5.632760
O	0.000000	1.877587	5.632760
O	1.877587	0.000000	5.632760
O	1.877587	1.877587	3.755173
Pd	0.000000	0.000000	3.755173
Co	1.877587	5.632760	1.877587
O	0.000000	5.632760	1.877587
O	1.877587	3.755173	1.877587
O	1.877587	5.632760	0.000000
Pd	0.000000	3.755173	0.000000
Co	1.877587	5.632760	5.632760
O	0.000000	5.632760	5.632760
O	1.877587	3.755173	5.632760
O	1.877587	5.632760	3.755173
Pd	0.000000	3.755173	3.755173
Co	5.632760	1.877587	1.877587
O	3.755173	1.877587	1.877587
O	5.632760	0.000000	1.877587
O	5.632760	1.877587	0.000000
Pd	3.755173	0.000000	0.000000
Co	5.632760	1.877587	5.632760
O	3.755173	1.877587	5.632760
O	5.632760	0.000000	5.632760
O	5.632760	1.877587	3.755173
Pd	3.755173	0.000000	3.755173
Co	5.632760	5.632760	1.877587
O	3.755173	5.632760	1.877587
O	5.632760	3.755173	1.877587
O	5.632760	5.632760	0.000000
Pd	3.755173	3.755173	0.000000
Co	5.632760	5.632760	5.632760
O	3.755173	5.632760	5.632760
O	5.632760	3.755173	5.632760
O	5.632760	5.632760	3.755173
Pd	3.755173	3.755173	3.755173
