40

Ag	1.995500	1.995500	1.995500
Ge	0.000000	0.000000	0.000000
O	1.995500	1.995500	0.000000
O	0.000000	1.995500	1.995500
O	1.995500	0.000000	1.995500
Ag	1.995500	1.995500	5.986488
Ge	0.000000	0.000000	3.990988
O	1.995500	1.995500	3.990988
O	0.000000	1.995500	5.986488
O	1.995500	0.000000	5.986488
Ag	1.995500	5.986488	1.995500
Ge	0.000000	3.990988	0.000000
O	1.995500	5.986488	0.000000
O	0.000000	5.986488	1.995500
O	1.995500	3.990988	1.995500
Ag	1.995500	5.986488	5.986488
Ge	0.000000	3.990988	3.990988
O	1.995500	5.986488	3.990988
O	0.000000	5.986488	5.986488
O	1.995500	3.990988	5.986488
Ag	5.986488	1.995500	1.995500
Ge	3.990988	0.000000	0.000000
O	5.986488	1.995500	0.000000
O	3.990988	1.995500	1.995500
O	5.986488	0.000000	1.995500
Ag	5.986488	1.995500	5.986488
Ge	3.990988	0.000000	3.990988
O	5.986488	1.995500	3.990988
O	3.990988	1.995500	5.986488
O	5.986488	0.000000	5.986488
Ag	5.986488	5.986488	1.995500
Ge	3.990988	3.990988	0.000000
O	5.986488	5.986488	0.000000
O	3.990988	5.986488	1.995500
O	5.986488	3.990988	1.995500
Ag	5.986488	5.986488	5.986488
Ge	3.990988	3.990988	3.990988
O	5.986488	5.986488	3.990988
O	3.990988	5.986488	5.986488
O	5.986488	3.990988	5.986488
