40

Hf	0.000000	0.000000	0.000000
O	0.000000	2.194694	2.194694
O	2.194694	0.000000	2.194694
O	2.194694	2.194694	0.000000
Sr	2.194694	2.194694	2.194694
Hf	0.000000	0.000000	4.389389
O	0.000000	2.194694	6.584083
O	2.194694	0.000000	6.584083
O	2.194694	2.194694	4.389389
Sr	2.194694	2.194694	6.584083
Hf	0.000000	4.389389	0.000000
O	0.000000	6.584083	2.194694
O	2.194694	4.389389	2.194694
O	2.194694	6.584083	0.000000
Sr	2.194694	6.584083	2.194694
Hf	0.000000	4.389389	4.389389
O	0.000000	6.584083	6.584083
O	2.194694	4.389389	6.584083
O	2.194694	6.584083	4.389389
Sr	2.194694	6.584083	6.584083
Hf	4.389389	0.000000	0.000000
O	4.389389	2.194694	2.194694
O	6.584083	0.000000	2.194694
O	6.584083	2.194694	0.000000
Sr	6.584083	2.194694	2.194694
Hf	4.389389	0.000000	4.389389
O	4.389389	2.194694	6.584083
O	6.584083	0.000000	6.584083
O	6.584083	2.194694	4.389389
Sr	6.584083	2.194694	6.584083
Hf	4.389389	4.389389	0.000000
O	4.389389	6.584083	2.194694
O	6.584083	4.389389	2.194694
O	6.584083	6.584083	0.000000
Sr	6.584083	6.584083	2.194694
Hf	4.389389	4.389389	4.389389
O	4.389389	6.584083	6.584083
O	6.584083	4.389389	6.584083
O	6.584083	6.584083	4.389389
Sr	6.584083	6.584083	6.584083
