40

Hf	0.000000	0.000000	0.000000
O	2.053711	0.000000	0.000000
O	0.000000	2.053711	0.000000
O	0.000000	0.000000	2.053711
Sr	2.038711	2.053711	2.053711
Hf	0.000000	0.000000	4.107422
O	2.053711	0.000000	4.107422
O	0.000000	2.053711	4.107422
O	0.000000	0.000000	6.161133
Sr	2.038711	2.053711	6.161133
Hf	0.000000	4.107422	0.000000
O	2.053711	4.107422	0.000000
O	0.000000	6.161133	0.000000
O	0.000000	4.107422	2.053711
Sr	2.038711	6.161133	2.053711
Hf	0.000000	4.107422	4.107422
O	2.053711	4.107422	4.107422
O	0.000000	6.161133	4.107422
O	0.000000	4.107422	6.161133
Sr	2.038711	6.161133	6.161133
Hf	4.107422	0.000000	0.000000
O	6.161133	0.000000	0.000000
O	4.107422	2.053711	0.000000
O	4.107422	0.000000	2.053711
Sr	6.146133	2.053711	2.053711
Hf	4.107422	0.000000	4.107422
O	6.161133	0.000000	4.107422
O	4.107422	2.053711	4.107422
O	4.107422	0.000000	6.161133
Sr	6.146133	2.053711	6.161133
Hf	4.107422	4.107422	0.000000
O	6.161133	4.107422	0.000000
O	4.107422	6.161133	0.000000
O	4.107422	4.107422	2.053711
Sr	6.146133	6.161133	2.053711
Hf	4.107422	4.107422	4.107422
O	6.161133	4.107422	4.107422
O	4.107422	6.161133	4.107422
O	4.107422	4.107422	6.161133
Sr	6.146133	6.161133	6.161133
