40

Ga	1.890953	1.890953	1.890953
O	0.000000	1.890953	1.890953
O	1.890953	0.000000	1.890953
O	1.890953	1.890953	0.000000
Sc	0.000000	0.000000	0.000000
Ga	1.890953	1.890953	5.672860
O	0.000000	1.890953	5.672860
O	1.890953	0.000000	5.672860
O	1.890953	1.890953	3.781906
Sc	0.000000	0.000000	3.781906
Ga	1.890953	5.672860	1.890953
O	0.000000	5.672860	1.890953
O	1.890953	3.781906	1.890953
O	1.890953	5.672860	0.000000
Sc	0.000000	3.781906	0.000000
Ga	1.890953	5.672860	5.672860
O	0.000000	5.672860	5.672860
O	1.890953	3.781906	5.672860
O	1.890953	5.672860	3.781906
Sc	0.000000	3.781906	3.781906
Ga	5.672860	1.890953	1.890953
O	3.781906	1.890953	1.890953
O	5.672860	0.000000	1.890953
O	5.672860	1.890953	0.000000
Sc	3.781906	0.000000	0.000000
Ga	5.672860	1.890953	5.672860
O	3.781906	1.890953	5.672860
O	5.672860	0.000000	5.672860
O	5.672860	1.890953	3.781906
Sc	3.781906	0.000000	3.781906
Ga	5.672860	5.672860	1.890953
O	3.781906	5.672860	1.890953
O	5.672860	3.781906	1.890953
O	5.672860	5.672860	0.000000
Sc	3.781906	3.781906	0.000000
Ga	5.672860	5.672860	5.672860
O	3.781906	5.672860	5.672860
O	5.672860	3.781906	5.672860
O	5.672860	5.672860	3.781906
Sc	3.781906	3.781906	3.781906
