112

Ge	0.000000	0.000000	0.000000
Ge	2.396422	-2.396772	-2.396772
O	3.701400	-1.091139	-1.091139
O	-1.091433	1.091139	-3.702404
O	1.091433	-1.091139	-3.702404
O	1.304988	1.305633	-1.305633
O	5.884267	1.091139	-1.091139
O	1.304988	3.487901	-3.487901
O	3.487845	3.487901	-1.305633
O	3.487845	1.305633	-3.487901
Tb	-1.198211	-1.198386	-3.595147
Tb	1.198211	1.198386	-3.595147
Tb	3.594623	1.198386	-1.198386
Tb	5.991044	-1.198386	-1.198386
Ge	4.792834	4.793535	0.000000
Ge	7.189256	2.396764	-2.396772
O	8.494234	3.702396	-1.091139
O	3.701400	5.884674	-3.702404
O	5.884267	3.702396	-3.702404
O	6.097822	6.099168	-1.305633
O	10.677101	5.884674	-1.091139
O	6.097822	8.281436	-3.487901
O	8.280679	8.281436	-1.305633
O	8.280679	6.099168	-3.487901
Tb	3.594623	3.595150	-3.595147
Tb	5.991045	5.991921	-3.595147
Tb	8.387456	5.991921	-1.198386
Tb	10.783878	3.595150	-1.198386
Ge	-4.792834	0.000000	-4.793535
Ge	-2.396412	-2.396772	-7.190307
O	-1.091434	-1.091139	-5.884674
O	-5.884267	1.091139	-8.495940
O	-3.701400	-1.091139	-8.495940
O	-3.487845	1.305633	-6.099168
O	1.091433	1.091139	-5.884674
O	-3.487845	3.487901	-8.281436
O	-1.304989	3.487901	-6.099168
O	-1.304989	1.305633	-8.281436
Tb	-5.991045	-1.198386	-8.388683
Tb	-3.594623	1.198386	-8.388683
Tb	-1.198211	1.198386	-5.991921
Tb	1.198211	-1.198386	-5.991921
Ge	0.000000	4.793535	-4.793535
Ge	2.396422	2.396764	-7.190307
O	3.701400	3.702396	-5.884674
O	-1.091433	5.884674	-8.495940
O	1.091433	3.702396	-8.495940
O	1.304988	6.099168	-6.099168
O	5.884267	5.884674	-5.884674
O	1.304988	8.281436	-8.281436
O	3.487845	8.281436	-6.099168
O	3.487845	6.099168	-8.281436
Tb	-1.198211	3.595150	-8.388683
Tb	1.198211	5.991921	-8.388683
Tb	3.594623	5.991921	-5.991921
Tb	5.991044	3.595150	-5.991921
Ge	4.792834	-4.793535	0.000000
Ge	7.189256	-7.190307	-2.396772
O	8.494234	-5.884674	-1.091139
O	3.701400	-3.702396	-3.702404
O	5.884267	-5.884674	-3.702404
O	6.097822	-3.487903	-1.305633
O	10.677101	-3.702396	-1.091139
O	6.097822	-1.305635	-3.487901
O	8.280679	-1.305635	-1.305633
O	8.280679	-3.487903	-3.487901
Tb	3.594623	-5.991921	-3.595147
Tb	5.991045	-3.595150	-3.595147
Tb	8.387456	-3.595150	-1.198386
Tb	10.783878	-5.991921	-1.198386
Ge	9.585668	0.000000	0.000000
Ge	11.982089	-2.396772	-2.396772
O	13.287068	-1.091139	-1.091139
O	8.494234	1.091139	-3.702404
O	10.677101	-1.091139	-3.702404
O	10.890656	1.305633	-1.305633
O	15.469935	1.091139	-1.091139
O	10.890656	3.487901	-3.487901
O	13.073513	3.487901	-1.305633
O	13.073513	1.305633	-3.487901
Tb	8.387457	-1.198386	-3.595147
Tb	10.783879	1.198386	-3.595147
Tb	13.180290	1.198386	-1.198386
Tb	15.576712	-1.198386	-1.198386
Ge	0.000000	-4.793535	-4.793535
Ge	2.396422	-7.190307	-7.190307
O	3.701400	-5.884674	-5.884674
O	-1.091433	-3.702396	-8.495940
O	1.091433	-5.884674	-8.495940
O	1.304988	-3.487903	-6.099168
O	5.884267	-3.702396	-5.884674
O	1.304988	-1.305635	-8.281436
O	3.487845	-1.305635	-6.099168
O	3.487845	-3.487903	-8.281436
Tb	-1.198211	-5.991921	-8.388683
Tb	1.198211	-3.595150	-8.388683
Tb	3.594623	-3.595150	-5.991921
Tb	5.991044	-5.991921	-5.991921
Ge	4.792834	0.000000	-4.793535
Ge	7.189256	-2.396772	-7.190307
O	8.494234	-1.091139	-5.884674
O	3.701400	1.091139	-8.495940
O	5.884267	-1.091139	-8.495940
O	6.097822	1.305633	-6.099168
O	10.677101	1.091139	-5.884674
O	6.097822	3.487901	-8.281436
O	8.280679	3.487901	-6.099168
O	8.280679	1.305633	-8.281436
Tb	3.594623	-1.198386	-8.388683
Tb	5.991045	1.198386	-8.388683
Tb	8.387456	1.198386	-5.991921
Tb	10.783878	-1.198386	-5.991921
