40

Ba	2.317970	2.317970	2.317970
O	0.000000	2.317970	2.317970
O	2.317970	0.000000	2.317970
O	2.317970	2.317970	0.000000
Rh	0.000000	0.000000	0.000000
Ba	2.317970	2.317970	6.953910
O	0.000000	2.317970	6.953910
O	2.317970	0.000000	6.953910
O	2.317970	2.317970	4.635940
Rh	0.000000	0.000000	4.635940
Ba	2.317970	6.953910	2.317970
O	0.000000	6.953910	2.317970
O	2.317970	4.635940	2.317970
O	2.317970	6.953910	0.000000
Rh	0.000000	4.635940	0.000000
Ba	2.317970	6.953910	6.953910
O	0.000000	6.953910	6.953910
O	2.317970	4.635940	6.953910
O	2.317970	6.953910	4.635940
Rh	0.000000	4.635940	4.635940
Ba	6.953910	2.317970	2.317970
O	4.635940	2.317970	2.317970
O	6.953910	0.000000	2.317970
O	6.953910	2.317970	0.000000
Rh	4.635940	0.000000	0.000000
Ba	6.953910	2.317970	6.953910
O	4.635940	2.317970	6.953910
O	6.953910	0.000000	6.953910
O	6.953910	2.317970	4.635940
Rh	4.635940	0.000000	4.635940
Ba	6.953910	6.953910	2.317970
O	4.635940	6.953910	2.317970
O	6.953910	4.635940	2.317970
O	6.953910	6.953910	0.000000
Rh	4.635940	4.635940	0.000000
Ba	6.953910	6.953910	6.953910
O	4.635940	6.953910	6.953910
O	6.953910	4.635940	6.953910
O	6.953910	6.953910	4.635940
Rh	4.635940	4.635940	4.635940
