112

La	0.000000	0.000000	0.000000
La	2.421100	-2.421778	-2.421778
O	3.781020	-1.060883	-1.060882
O	-1.061180	1.060882	-3.782673
O	1.061180	-1.060883	-3.782673
O	1.359920	1.360895	-1.360895
O	5.903379	1.060882	-1.060882
O	1.359920	3.482660	-3.482660
O	3.482279	3.482660	-1.360895
O	3.482279	1.360895	-3.482660
Tm	-1.210550	-1.210889	-3.632666
Tm	3.631650	1.210889	-1.210889
Tm	6.052750	-1.210889	-1.210889
Tm	1.210550	1.210889	-3.632666
La	4.842200	4.843555	0.000000
La	7.263300	2.421778	-2.421778
O	8.623220	3.782673	-1.060882
O	3.781020	5.904438	-3.782673
O	5.903379	3.782673	-3.782673
O	6.202120	6.204450	-1.360895
O	10.745579	5.904438	-1.060882
O	6.202120	8.326215	-3.482660
O	8.324479	8.326215	-1.360895
O	8.324479	6.204450	-3.482660
Tm	3.631650	3.632666	-3.632666
Tm	8.473849	6.054444	-1.210889
Tm	10.894949	3.632666	-1.210889
Tm	6.052750	6.054444	-3.632666
La	-4.842200	0.000000	-4.843555
La	-2.421100	-2.421778	-7.265333
O	-1.061180	-1.060883	-5.904438
O	-5.903379	1.060882	-8.626228
O	-3.781020	-1.060883	-8.626228
O	-3.482279	1.360895	-6.204450
O	1.061180	1.060882	-5.904438
O	-3.482279	3.482660	-8.326215
O	-1.359920	3.482660	-6.204450
O	-1.359920	1.360895	-8.326215
Tm	-6.052750	-1.210889	-8.476222
Tm	-1.210550	1.210889	-6.054444
Tm	1.210550	-1.210889	-6.054444
Tm	-3.631650	1.210889	-8.476222
La	0.000000	4.843555	-4.843555
La	2.421100	2.421778	-7.265333
O	3.781020	3.782673	-5.904438
O	-1.061180	5.904438	-8.626228
O	1.061180	3.782673	-8.626228
O	1.359920	6.204450	-6.204450
O	5.903379	5.904438	-5.904438
O	1.359920	8.326215	-8.326215
O	3.482279	8.326215	-6.204450
O	3.482279	6.204450	-8.326215
Tm	-1.210550	3.632666	-8.476222
Tm	3.631650	6.054444	-6.054444
Tm	6.052750	3.632666	-6.054444
Tm	1.210550	6.054444	-8.476222
La	4.842200	-4.843555	0.000000
La	7.263300	-7.265333	-2.421778
O	8.623220	-5.904438	-1.060882
O	3.781020	-3.782673	-3.782673
O	5.903379	-5.904438	-3.782673
O	6.202120	-3.482660	-1.360895
O	10.745579	-3.782673	-1.060882
O	6.202120	-1.360895	-3.482660
O	8.324479	-1.360895	-1.360895
O	8.324479	-3.482660	-3.482660
Tm	3.631650	-6.054444	-3.632666
Tm	8.473849	-3.632666	-1.210889
Tm	10.894949	-6.054444	-1.210889
Tm	6.052750	-3.632666	-3.632666
La	9.684399	0.000000	0.000000
La	12.105499	-2.421778	-2.421778
O	13.465420	-1.060883	-1.060882
O	8.623220	1.060882	-3.782673
O	10.745579	-1.060883	-3.782673
O	11.044320	1.360895	-1.360895
O	15.587779	1.060882	-1.060882
O	11.044320	3.482660	-3.482660
O	13.166679	3.482660	-1.360895
O	13.166679	1.360895	-3.482660
Tm	8.473849	-1.210889	-3.632666
Tm	13.316049	1.210889	-1.210889
Tm	15.737149	-1.210889	-1.210889
Tm	10.894949	1.210889	-3.632666
La	0.000000	-4.843555	-4.843555
La	2.421100	-7.265333	-7.265333
O	3.781020	-5.904438	-5.904438
O	-1.061180	-3.782673	-8.626228
O	1.061180	-5.904438	-8.626228
O	1.359920	-3.482660	-6.204450
O	5.903379	-3.782673	-5.904438
O	1.359920	-1.360895	-8.326215
O	3.482279	-1.360895	-6.204450
O	3.482279	-3.482660	-8.326215
Tm	-1.210550	-6.054444	-8.476222
Tm	3.631650	-3.632666	-6.054444
Tm	6.052750	-6.054444	-6.054444
Tm	1.210550	-3.632666	-8.476222
La	4.842200	0.000000	-4.843555
La	7.263300	-2.421778	-7.265333
O	8.623220	-1.060883	-5.904438
O	3.781020	1.060882	-8.626228
O	5.903379	-1.060883	-8.626228
O	6.202120	1.360895	-6.204450
O	10.745579	1.060882	-5.904438
O	6.202120	3.482660	-8.326215
O	8.324479	3.482660	-6.204450
O	8.324479	1.360895	-8.326215
Tm	3.631650	-1.210889	-8.476222
Tm	8.473849	1.210889	-6.054444
Tm	10.894949	-1.210889	-6.054444
Tm	6.052750	1.210889	-8.476222
