40

In	2.071450	2.071450	2.071450
La	0.000000	0.000000	0.000000
O	2.071450	2.071450	0.000000
O	0.000000	2.071450	2.071450
O	2.071450	0.000000	2.071450
In	2.071450	2.071450	6.214338
La	0.000000	0.000000	4.142888
O	2.071450	2.071450	4.142888
O	0.000000	2.071450	6.214338
O	2.071450	0.000000	6.214338
In	2.071450	6.214338	2.071450
La	0.000000	4.142888	0.000000
O	2.071450	6.214338	0.000000
O	0.000000	6.214338	2.071450
O	2.071450	4.142888	2.071450
In	2.071450	6.214338	6.214338
La	0.000000	4.142888	4.142888
O	2.071450	6.214338	4.142888
O	0.000000	6.214338	6.214338
O	2.071450	4.142888	6.214338
In	6.214338	2.071450	2.071450
La	4.142888	0.000000	0.000000
O	6.214338	2.071450	0.000000
O	4.142888	2.071450	2.071450
O	6.214338	0.000000	2.071450
In	6.214338	2.071450	6.214338
La	4.142888	0.000000	4.142888
O	6.214338	2.071450	4.142888
O	4.142888	2.071450	6.214338
O	6.214338	0.000000	6.214338
In	6.214338	6.214338	2.071450
La	4.142888	4.142888	0.000000
O	6.214338	6.214338	0.000000
O	4.142888	6.214338	2.071450
O	6.214338	4.142888	2.071450
In	6.214338	6.214338	6.214338
La	4.142888	4.142888	4.142888
O	6.214338	6.214338	4.142888
O	4.142888	6.214338	6.214338
O	6.214338	4.142888	6.214338
