40

Ga	0.000000	0.000000	0.000000
I	2.092345	2.092345	2.092345
O	0.000000	2.092345	2.092345
O	2.092345	0.000000	2.092345
O	2.092345	2.092345	0.000000
Ga	0.000000	0.000000	4.184690
I	2.092345	2.092345	6.277035
O	0.000000	2.092345	6.277035
O	2.092345	0.000000	6.277035
O	2.092345	2.092345	4.184690
Ga	0.000000	4.184690	0.000000
I	2.092345	6.277035	2.092345
O	0.000000	6.277035	2.092345
O	2.092345	4.184690	2.092345
O	2.092345	6.277035	0.000000
Ga	0.000000	4.184690	4.184690
I	2.092345	6.277035	6.277035
O	0.000000	6.277035	6.277035
O	2.092345	4.184690	6.277035
O	2.092345	6.277035	4.184690
Ga	4.184690	0.000000	0.000000
I	6.277035	2.092345	2.092345
O	4.184690	2.092345	2.092345
O	6.277035	0.000000	2.092345
O	6.277035	2.092345	0.000000
Ga	4.184690	0.000000	4.184690
I	6.277035	2.092345	6.277035
O	4.184690	2.092345	6.277035
O	6.277035	0.000000	6.277035
O	6.277035	2.092345	4.184690
Ga	4.184690	4.184690	0.000000
I	6.277035	6.277035	2.092345
O	4.184690	6.277035	2.092345
O	6.277035	4.184690	2.092345
O	6.277035	6.277035	0.000000
Ga	4.184690	4.184690	4.184690
I	6.277035	6.277035	6.277035
O	4.184690	6.277035	6.277035
O	6.277035	4.184690	6.277035
O	6.277035	6.277035	4.184690
