40

Be	1.885790	1.885790	1.885790
K	0.000000	0.000000	0.000000
O	0.000000	1.885790	1.885790
O	1.885790	0.000000	1.885790
O	1.885790	1.885790	0.000000
Be	1.885790	1.885790	5.657369
K	0.000000	0.000000	3.771579
O	0.000000	1.885790	5.657369
O	1.885790	0.000000	5.657369
O	1.885790	1.885790	3.771579
Be	1.885790	5.657369	1.885790
K	0.000000	3.771579	0.000000
O	0.000000	5.657369	1.885790
O	1.885790	3.771579	1.885790
O	1.885790	5.657369	0.000000
Be	1.885790	5.657369	5.657369
K	0.000000	3.771579	3.771579
O	0.000000	5.657369	5.657369
O	1.885790	3.771579	5.657369
O	1.885790	5.657369	3.771579
Be	5.657369	1.885790	1.885790
K	3.771579	0.000000	0.000000
O	3.771579	1.885790	1.885790
O	5.657369	0.000000	1.885790
O	5.657369	1.885790	0.000000
Be	5.657369	1.885790	5.657369
K	3.771579	0.000000	3.771579
O	3.771579	1.885790	5.657369
O	5.657369	0.000000	5.657369
O	5.657369	1.885790	3.771579
Be	5.657369	5.657369	1.885790
K	3.771579	3.771579	0.000000
O	3.771579	5.657369	1.885790
O	5.657369	3.771579	1.885790
O	5.657369	5.657369	0.000000
Be	5.657369	5.657369	5.657369
K	3.771579	3.771579	3.771579
O	3.771579	5.657369	5.657369
O	5.657369	3.771579	5.657369
O	5.657369	5.657369	3.771579
