40

Cd	0.000000	0.000000	0.000000
O	0.000000	1.983733	1.983733
O	1.983733	0.000000	1.983733
O	1.983733	1.983733	0.000000
Se	1.983733	1.983733	1.983733
Cd	0.000000	0.000000	3.967466
O	0.000000	1.983733	5.951199
O	1.983733	0.000000	5.951199
O	1.983733	1.983733	3.967466
Se	1.983733	1.983733	5.951199
Cd	0.000000	3.967466	0.000000
O	0.000000	5.951199	1.983733
O	1.983733	3.967466	1.983733
O	1.983733	5.951199	0.000000
Se	1.983733	5.951199	1.983733
Cd	0.000000	3.967466	3.967466
O	0.000000	5.951199	5.951199
O	1.983733	3.967466	5.951199
O	1.983733	5.951199	3.967466
Se	1.983733	5.951199	5.951199
Cd	3.967466	0.000000	0.000000
O	3.967466	1.983733	1.983733
O	5.951199	0.000000	1.983733
O	5.951199	1.983733	0.000000
Se	5.951199	1.983733	1.983733
Cd	3.967466	0.000000	3.967466
O	3.967466	1.983733	5.951199
O	5.951199	0.000000	5.951199
O	5.951199	1.983733	3.967466
Se	5.951199	1.983733	5.951199
Cd	3.967466	3.967466	0.000000
O	3.967466	5.951199	1.983733
O	5.951199	3.967466	1.983733
O	5.951199	5.951199	0.000000
Se	5.951199	5.951199	1.983733
Cd	3.967466	3.967466	3.967466
O	3.967466	5.951199	5.951199
O	5.951199	3.967466	5.951199
O	5.951199	5.951199	3.967466
Se	5.951199	5.951199	5.951199
