40

Cd	2.071178	2.071178	2.071178
O	0.000000	2.071178	2.071178
O	2.071178	0.000000	2.071178
O	2.071178	2.071178	0.000000
Se	0.000000	0.000000	0.000000
Cd	2.071178	2.071178	6.213535
O	0.000000	2.071178	6.213535
O	2.071178	0.000000	6.213535
O	2.071178	2.071178	4.142357
Se	0.000000	0.000000	4.142357
Cd	2.071178	6.213535	2.071178
O	0.000000	6.213535	2.071178
O	2.071178	4.142357	2.071178
O	2.071178	6.213535	0.000000
Se	0.000000	4.142357	0.000000
Cd	2.071178	6.213535	6.213535
O	0.000000	6.213535	6.213535
O	2.071178	4.142357	6.213535
O	2.071178	6.213535	4.142357
Se	0.000000	4.142357	4.142357
Cd	6.213535	2.071178	2.071178
O	4.142357	2.071178	2.071178
O	6.213535	0.000000	2.071178
O	6.213535	2.071178	0.000000
Se	4.142357	0.000000	0.000000
Cd	6.213535	2.071178	6.213535
O	4.142357	2.071178	6.213535
O	6.213535	0.000000	6.213535
O	6.213535	2.071178	4.142357
Se	4.142357	0.000000	4.142357
Cd	6.213535	6.213535	2.071178
O	4.142357	6.213535	2.071178
O	6.213535	4.142357	2.071178
O	6.213535	6.213535	0.000000
Se	4.142357	4.142357	0.000000
Cd	6.213535	6.213535	6.213535
O	4.142357	6.213535	6.213535
O	6.213535	4.142357	6.213535
O	6.213535	6.213535	4.142357
Se	4.142357	4.142357	4.142357
