40

Ca	2.108865	2.108865	2.108865
Mn	0.000000	0.000000	0.000000
O	2.108865	2.108865	0.000000
O	2.108865	0.000000	2.108865
O	0.000000	2.108865	2.108865
Ca	2.108865	2.108865	6.326589
Mn	0.000000	0.000000	4.217724
O	2.108865	2.108865	4.217724
O	2.108865	0.000000	6.326589
O	0.000000	2.108865	6.326589
Ca	2.108865	6.326589	2.108865
Mn	0.000000	4.217724	0.000000
O	2.108865	6.326589	0.000000
O	2.108865	4.217724	2.108865
O	0.000000	6.326589	2.108865
Ca	2.108865	6.326589	6.326589
Mn	0.000000	4.217724	4.217724
O	2.108865	6.326589	4.217724
O	2.108865	4.217724	6.326589
O	0.000000	6.326589	6.326589
Ca	6.326589	2.108865	2.108865
Mn	4.217724	0.000000	0.000000
O	6.326589	2.108865	0.000000
O	6.326589	0.000000	2.108865
O	4.217724	2.108865	2.108865
Ca	6.326589	2.108865	6.326589
Mn	4.217724	0.000000	4.217724
O	6.326589	2.108865	4.217724
O	6.326589	0.000000	6.326589
O	4.217724	2.108865	6.326589
Ca	6.326589	6.326589	2.108865
Mn	4.217724	4.217724	0.000000
O	6.326589	6.326589	0.000000
O	6.326589	4.217724	2.108865
O	4.217724	6.326589	2.108865
Ca	6.326589	6.326589	6.326589
Mn	4.217724	4.217724	4.217724
O	6.326589	6.326589	4.217724
O	6.326589	4.217724	6.326589
O	4.217724	6.326589	6.326589
