40

Ca	2.143252	2.143252	2.143252
Mn	0.000000	0.000000	0.000000
O	0.000000	2.143252	2.143252
O	2.143252	0.000000	2.143252
O	2.143252	2.143252	0.000000
Ca	2.143252	2.143252	6.429755
Mn	0.000000	0.000000	4.286503
O	0.000000	2.143252	6.429755
O	2.143252	0.000000	6.429755
O	2.143252	2.143252	4.286503
Ca	2.143252	6.429755	2.143252
Mn	0.000000	4.286503	0.000000
O	0.000000	6.429755	2.143252
O	2.143252	4.286503	2.143252
O	2.143252	6.429755	0.000000
Ca	2.143252	6.429755	6.429755
Mn	0.000000	4.286503	4.286503
O	0.000000	6.429755	6.429755
O	2.143252	4.286503	6.429755
O	2.143252	6.429755	4.286503
Ca	6.429755	2.143252	2.143252
Mn	4.286503	0.000000	0.000000
O	4.286503	2.143252	2.143252
O	6.429755	0.000000	2.143252
O	6.429755	2.143252	0.000000
Ca	6.429755	2.143252	6.429755
Mn	4.286503	0.000000	4.286503
O	4.286503	2.143252	6.429755
O	6.429755	0.000000	6.429755
O	6.429755	2.143252	4.286503
Ca	6.429755	6.429755	2.143252
Mn	4.286503	4.286503	0.000000
O	4.286503	6.429755	2.143252
O	6.429755	4.286503	2.143252
O	6.429755	6.429755	0.000000
Ca	6.429755	6.429755	6.429755
Mn	4.286503	4.286503	4.286503
O	4.286503	6.429755	6.429755
O	6.429755	4.286503	6.429755
O	6.429755	6.429755	4.286503
