40

Ac	2.252570	2.252570	2.252570
Na_pv	0.000000	0.000000	0.000000
O	2.252570	2.252570	0.000000
O	0.000000	2.252570	2.252570
O	2.252570	0.000000	2.252570
Ac	2.252570	2.252570	6.757711
Na_pv	0.000000	0.000000	4.505141
O	2.252570	2.252570	4.505141
O	0.000000	2.252570	6.757711
O	2.252570	0.000000	6.757711
Ac	2.252570	6.757711	2.252570
Na_pv	0.000000	4.505141	0.000000
O	2.252570	6.757711	0.000000
O	0.000000	6.757711	2.252570
O	2.252570	4.505141	2.252570
Ac	2.252570	6.757711	6.757711
Na_pv	0.000000	4.505141	4.505141
O	2.252570	6.757711	4.505141
O	0.000000	6.757711	6.757711
O	2.252570	4.505141	6.757711
Ac	6.757711	2.252570	2.252570
Na_pv	4.505141	0.000000	0.000000
O	6.757711	2.252570	0.000000
O	4.505141	2.252570	2.252570
O	6.757711	0.000000	2.252570
Ac	6.757711	2.252570	6.757711
Na_pv	4.505141	0.000000	4.505141
O	6.757711	2.252570	4.505141
O	4.505141	2.252570	6.757711
O	6.757711	0.000000	6.757711
Ac	6.757711	6.757711	2.252570
Na_pv	4.505141	4.505141	0.000000
O	6.757711	6.757711	0.000000
O	4.505141	6.757711	2.252570
O	6.757711	4.505141	2.252570
Ac	6.757711	6.757711	6.757711
Na_pv	4.505141	4.505141	4.505141
O	6.757711	6.757711	4.505141
O	4.505141	6.757711	6.757711
O	6.757711	4.505141	6.757711
