40

Bi	0.000000	0.000000	0.000000
Cd	2.087911	2.087911	2.087911
O	2.087911	2.087911	0.000000
O	2.087911	0.000000	2.087911
O	0.000000	2.087911	2.087911
Bi	0.000000	0.000000	4.175822
Cd	2.087911	2.087911	6.263733
O	2.087911	2.087911	4.175822
O	2.087911	0.000000	6.263733
O	0.000000	2.087911	6.263733
Bi	0.000000	4.175822	0.000000
Cd	2.087911	6.263733	2.087911
O	2.087911	6.263733	0.000000
O	2.087911	4.175822	2.087911
O	0.000000	6.263733	2.087911
Bi	0.000000	4.175822	4.175822
Cd	2.087911	6.263733	6.263733
O	2.087911	6.263733	4.175822
O	2.087911	4.175822	6.263733
O	0.000000	6.263733	6.263733
Bi	4.175822	0.000000	0.000000
Cd	6.263733	2.087911	2.087911
O	6.263733	2.087911	0.000000
O	6.263733	0.000000	2.087911
O	4.175822	2.087911	2.087911
Bi	4.175822	0.000000	4.175822
Cd	6.263733	2.087911	6.263733
O	6.263733	2.087911	4.175822
O	6.263733	0.000000	6.263733
O	4.175822	2.087911	6.263733
Bi	4.175822	4.175822	0.000000
Cd	6.263733	6.263733	2.087911
O	6.263733	6.263733	0.000000
O	6.263733	4.175822	2.087911
O	4.175822	6.263733	2.087911
Bi	4.175822	4.175822	4.175822
Cd	6.263733	6.263733	6.263733
O	6.263733	6.263733	4.175822
O	6.263733	4.175822	6.263733
O	4.175822	6.263733	6.263733
