40

O	0.000000	2.162935	2.162935
O	2.162935	0.000000	2.162935
O	2.162935	2.162935	0.000000
Ru	0.000000	0.000000	0.000000
Y	2.162935	2.162935	2.162935
O	0.000000	2.162935	6.488805
O	2.162935	0.000000	6.488805
O	2.162935	2.162935	4.325870
Ru	0.000000	0.000000	4.325870
Y	2.162935	2.162935	6.488805
O	0.000000	6.488805	2.162935
O	2.162935	4.325870	2.162935
O	2.162935	6.488805	0.000000
Ru	0.000000	4.325870	0.000000
Y	2.162935	6.488805	2.162935
O	0.000000	6.488805	6.488805
O	2.162935	4.325870	6.488805
O	2.162935	6.488805	4.325870
Ru	0.000000	4.325870	4.325870
Y	2.162935	6.488805	6.488805
O	4.325870	2.162935	2.162935
O	6.488805	0.000000	2.162935
O	6.488805	2.162935	0.000000
Ru	4.325870	0.000000	0.000000
Y	6.488805	2.162935	2.162935
O	4.325870	2.162935	6.488805
O	6.488805	0.000000	6.488805
O	6.488805	2.162935	4.325870
Ru	4.325870	0.000000	4.325870
Y	6.488805	2.162935	6.488805
O	4.325870	6.488805	2.162935
O	6.488805	4.325870	2.162935
O	6.488805	6.488805	0.000000
Ru	4.325870	4.325870	0.000000
Y	6.488805	6.488805	2.162935
O	4.325870	6.488805	6.488805
O	6.488805	4.325870	6.488805
O	6.488805	6.488805	4.325870
Ru	4.325870	4.325870	4.325870
Y	6.488805	6.488805	6.488805
