40

La	0.000000	0.000000	0.000000
Li	1.909491	1.909491	1.909491
O	1.909491	1.909491	0.000000
O	1.909491	0.000000	1.909491
O	0.000000	1.909491	1.909491
La	0.000000	0.000000	3.818983
Li	1.909491	1.909491	5.728474
O	1.909491	1.909491	3.818983
O	1.909491	0.000000	5.728474
O	0.000000	1.909491	5.728474
La	0.000000	3.818983	0.000000
Li	1.909491	5.728474	1.909491
O	1.909491	5.728474	0.000000
O	1.909491	3.818983	1.909491
O	0.000000	5.728474	1.909491
La	0.000000	3.818983	3.818983
Li	1.909491	5.728474	5.728474
O	1.909491	5.728474	3.818983
O	1.909491	3.818983	5.728474
O	0.000000	5.728474	5.728474
La	3.818983	0.000000	0.000000
Li	5.728474	1.909491	1.909491
O	5.728474	1.909491	0.000000
O	5.728474	0.000000	1.909491
O	3.818983	1.909491	1.909491
La	3.818983	0.000000	3.818983
Li	5.728474	1.909491	5.728474
O	5.728474	1.909491	3.818983
O	5.728474	0.000000	5.728474
O	3.818983	1.909491	5.728474
La	3.818983	3.818983	0.000000
Li	5.728474	5.728474	1.909491
O	5.728474	5.728474	0.000000
O	5.728474	3.818983	1.909491
O	3.818983	5.728474	1.909491
La	3.818983	3.818983	3.818983
Li	5.728474	5.728474	5.728474
O	5.728474	5.728474	3.818983
O	5.728474	3.818983	5.728474
O	3.818983	5.728474	5.728474
