40

Cd	2.173701	2.173701	2.173701
F	0.000000	2.173701	2.173701
F	2.173701	0.000000	2.173701
F	2.173701	2.173701	0.000000
O	0.000000	0.000000	0.000000
Cd	2.173701	2.173701	6.521104
F	0.000000	2.173701	6.521104
F	2.173701	0.000000	6.521104
F	2.173701	2.173701	4.347402
O	0.000000	0.000000	4.347402
Cd	2.173701	6.521104	2.173701
F	0.000000	6.521104	2.173701
F	2.173701	4.347402	2.173701
F	2.173701	6.521104	0.000000
O	0.000000	4.347402	0.000000
Cd	2.173701	6.521104	6.521104
F	0.000000	6.521104	6.521104
F	2.173701	4.347402	6.521104
F	2.173701	6.521104	4.347402
O	0.000000	4.347402	4.347402
Cd	6.521104	2.173701	2.173701
F	4.347402	2.173701	2.173701
F	6.521104	0.000000	2.173701
F	6.521104	2.173701	0.000000
O	4.347402	0.000000	0.000000
Cd	6.521104	2.173701	6.521104
F	4.347402	2.173701	6.521104
F	6.521104	0.000000	6.521104
F	6.521104	2.173701	4.347402
O	4.347402	0.000000	4.347402
Cd	6.521104	6.521104	2.173701
F	4.347402	6.521104	2.173701
F	6.521104	4.347402	2.173701
F	6.521104	6.521104	0.000000
O	4.347402	4.347402	0.000000
Cd	6.521104	6.521104	6.521104
F	4.347402	6.521104	6.521104
F	6.521104	4.347402	6.521104
F	6.521104	6.521104	4.347402
O	4.347402	4.347402	4.347402
