40

Fe	1.924210	1.924210	1.924210
Gd_3	0.000000	0.000000	0.000000
O	1.924210	0.000000	1.924210
O	0.000000	1.924210	1.924210
O	1.924210	1.924210	0.000000
Fe	1.924210	1.924210	5.772638
Gd_3	0.000000	0.000000	3.848428
O	1.924210	0.000000	5.772638
O	0.000000	1.924210	5.772638
O	1.924210	1.924210	3.848428
Fe	1.924210	5.772638	1.924210
Gd_3	0.000000	3.848428	0.000000
O	1.924210	3.848428	1.924210
O	0.000000	5.772638	1.924210
O	1.924210	5.772638	0.000000
Fe	1.924210	5.772638	5.772638
Gd_3	0.000000	3.848428	3.848428
O	1.924210	3.848428	5.772638
O	0.000000	5.772638	5.772638
O	1.924210	5.772638	3.848428
Fe	5.772638	1.924210	1.924210
Gd_3	3.848428	0.000000	0.000000
O	5.772638	0.000000	1.924210
O	3.848428	1.924210	1.924210
O	5.772638	1.924210	0.000000
Fe	5.772638	1.924210	5.772638
Gd_3	3.848428	0.000000	3.848428
O	5.772638	0.000000	5.772638
O	3.848428	1.924210	5.772638
O	5.772638	1.924210	3.848428
Fe	5.772638	5.772638	1.924210
Gd_3	3.848428	3.848428	0.000000
O	5.772638	3.848428	1.924210
O	3.848428	5.772638	1.924210
O	5.772638	5.772638	0.000000
Fe	5.772638	5.772638	5.772638
Gd_3	3.848428	3.848428	3.848428
O	5.772638	3.848428	5.772638
O	3.848428	5.772638	5.772638
O	5.772638	5.772638	3.848428
