40

Au	2.077021	2.077021	2.077021
I	0.000000	0.000000	0.000000
O	0.000000	2.077021	2.077021
O	2.077021	0.000000	2.077021
O	2.077021	2.077021	0.000000
Au	2.077021	2.077021	6.231063
I	0.000000	0.000000	4.154042
O	0.000000	2.077021	6.231063
O	2.077021	0.000000	6.231063
O	2.077021	2.077021	4.154042
Au	2.077021	6.231063	2.077021
I	0.000000	4.154042	0.000000
O	0.000000	6.231063	2.077021
O	2.077021	4.154042	2.077021
O	2.077021	6.231063	0.000000
Au	2.077021	6.231063	6.231063
I	0.000000	4.154042	4.154042
O	0.000000	6.231063	6.231063
O	2.077021	4.154042	6.231063
O	2.077021	6.231063	4.154042
Au	6.231063	2.077021	2.077021
I	4.154042	0.000000	0.000000
O	4.154042	2.077021	2.077021
O	6.231063	0.000000	2.077021
O	6.231063	2.077021	0.000000
Au	6.231063	2.077021	6.231063
I	4.154042	0.000000	4.154042
O	4.154042	2.077021	6.231063
O	6.231063	0.000000	6.231063
O	6.231063	2.077021	4.154042
Au	6.231063	6.231063	2.077021
I	4.154042	4.154042	0.000000
O	4.154042	6.231063	2.077021
O	6.231063	4.154042	2.077021
O	6.231063	6.231063	0.000000
Au	6.231063	6.231063	6.231063
I	4.154042	4.154042	4.154042
O	4.154042	6.231063	6.231063
O	6.231063	4.154042	6.231063
O	6.231063	6.231063	4.154042
