40

Ag	0.000000	0.000000	0.000000
O	0.000000	1.942053	1.942053
O	1.942053	0.000000	1.942053
O	1.942053	1.942053	0.000000
Se	1.942053	1.942053	1.942053
Ag	0.000000	0.000000	3.884106
O	0.000000	1.942053	5.826159
O	1.942053	0.000000	5.826159
O	1.942053	1.942053	3.884106
Se	1.942053	1.942053	5.826159
Ag	0.000000	3.884106	0.000000
O	0.000000	5.826159	1.942053
O	1.942053	3.884106	1.942053
O	1.942053	5.826159	0.000000
Se	1.942053	5.826159	1.942053
Ag	0.000000	3.884106	3.884106
O	0.000000	5.826159	5.826159
O	1.942053	3.884106	5.826159
O	1.942053	5.826159	3.884106
Se	1.942053	5.826159	5.826159
Ag	3.884106	0.000000	0.000000
O	3.884106	1.942053	1.942053
O	5.826159	0.000000	1.942053
O	5.826159	1.942053	0.000000
Se	5.826159	1.942053	1.942053
Ag	3.884106	0.000000	3.884106
O	3.884106	1.942053	5.826159
O	5.826159	0.000000	5.826159
O	5.826159	1.942053	3.884106
Se	5.826159	1.942053	5.826159
Ag	3.884106	3.884106	0.000000
O	3.884106	5.826159	1.942053
O	5.826159	3.884106	1.942053
O	5.826159	5.826159	0.000000
Se	5.826159	5.826159	1.942053
Ag	3.884106	3.884106	3.884106
O	3.884106	5.826159	5.826159
O	5.826159	3.884106	5.826159
O	5.826159	5.826159	3.884106
Se	5.826159	5.826159	5.826159
