40

Ca	0.000000	0.000000	0.000000
I	2.157140	2.157140	2.157140
O	0.000000	2.157140	2.157140
O	2.157140	0.000000	2.157140
O	2.157140	2.157140	0.000000
Ca	0.000000	0.000000	4.314279
I	2.157140	2.157140	6.471419
O	0.000000	2.157140	6.471419
O	2.157140	0.000000	6.471419
O	2.157140	2.157140	4.314279
Ca	0.000000	4.314279	0.000000
I	2.157140	6.471419	2.157140
O	0.000000	6.471419	2.157140
O	2.157140	4.314279	2.157140
O	2.157140	6.471419	0.000000
Ca	0.000000	4.314279	4.314279
I	2.157140	6.471419	6.471419
O	0.000000	6.471419	6.471419
O	2.157140	4.314279	6.471419
O	2.157140	6.471419	4.314279
Ca	4.314279	0.000000	0.000000
I	6.471419	2.157140	2.157140
O	4.314279	2.157140	2.157140
O	6.471419	0.000000	2.157140
O	6.471419	2.157140	0.000000
Ca	4.314279	0.000000	4.314279
I	6.471419	2.157140	6.471419
O	4.314279	2.157140	6.471419
O	6.471419	0.000000	6.471419
O	6.471419	2.157140	4.314279
Ca	4.314279	4.314279	0.000000
I	6.471419	6.471419	2.157140
O	4.314279	6.471419	2.157140
O	6.471419	4.314279	2.157140
O	6.471419	6.471419	0.000000
Ca	4.314279	4.314279	4.314279
I	6.471419	6.471419	6.471419
O	4.314279	6.471419	6.471419
O	6.471419	4.314279	6.471419
O	6.471419	6.471419	4.314279
