40

Bi	2.180720	2.180720	2.180720
O	2.180720	2.180720	0.000000
O	0.000000	2.180720	2.180720
O	2.180720	0.000000	2.180720
Sm	0.000000	0.000000	0.000000
Bi	2.180720	2.180720	6.542151
O	2.180720	2.180720	4.361431
O	0.000000	2.180720	6.542151
O	2.180720	0.000000	6.542151
Sm	0.000000	0.000000	4.361431
Bi	2.180720	6.542151	2.180720
O	2.180720	6.542151	0.000000
O	0.000000	6.542151	2.180720
O	2.180720	4.361431	2.180720
Sm	0.000000	4.361431	0.000000
Bi	2.180720	6.542151	6.542151
O	2.180720	6.542151	4.361431
O	0.000000	6.542151	6.542151
O	2.180720	4.361431	6.542151
Sm	0.000000	4.361431	4.361431
Bi	6.542151	2.180720	2.180720
O	6.542151	2.180720	0.000000
O	4.361431	2.180720	2.180720
O	6.542151	0.000000	2.180720
Sm	4.361431	0.000000	0.000000
Bi	6.542151	2.180720	6.542151
O	6.542151	2.180720	4.361431
O	4.361431	2.180720	6.542151
O	6.542151	0.000000	6.542151
Sm	4.361431	0.000000	4.361431
Bi	6.542151	6.542151	2.180720
O	6.542151	6.542151	0.000000
O	4.361431	6.542151	2.180720
O	6.542151	4.361431	2.180720
Sm	4.361431	4.361431	0.000000
Bi	6.542151	6.542151	6.542151
O	6.542151	6.542151	4.361431
O	4.361431	6.542151	6.542151
O	6.542151	4.361431	6.542151
Sm	4.361431	4.361431	4.361431
