40

Cl	0.000000	0.000000	0.000000
O	0.000000	2.018323	2.018323
O	2.018323	0.000000	2.018323
O	2.018323	2.018323	0.000000
Ta	2.018323	2.018323	2.018323
Cl	0.000000	0.000000	4.036647
O	0.000000	2.018323	6.054970
O	2.018323	0.000000	6.054970
O	2.018323	2.018323	4.036647
Ta	2.018323	2.018323	6.054970
Cl	0.000000	4.036647	0.000000
O	0.000000	6.054970	2.018323
O	2.018323	4.036647	2.018323
O	2.018323	6.054970	0.000000
Ta	2.018323	6.054970	2.018323
Cl	0.000000	4.036647	4.036647
O	0.000000	6.054970	6.054970
O	2.018323	4.036647	6.054970
O	2.018323	6.054970	4.036647
Ta	2.018323	6.054970	6.054970
Cl	4.036647	0.000000	0.000000
O	4.036647	2.018323	2.018323
O	6.054970	0.000000	2.018323
O	6.054970	2.018323	0.000000
Ta	6.054970	2.018323	2.018323
Cl	4.036647	0.000000	4.036647
O	4.036647	2.018323	6.054970
O	6.054970	0.000000	6.054970
O	6.054970	2.018323	4.036647
Ta	6.054970	2.018323	6.054970
Cl	4.036647	4.036647	0.000000
O	4.036647	6.054970	2.018323
O	6.054970	4.036647	2.018323
O	6.054970	6.054970	0.000000
Ta	6.054970	6.054970	2.018323
Cl	4.036647	4.036647	4.036647
O	4.036647	6.054970	6.054970
O	6.054970	4.036647	6.054970
O	6.054970	6.054970	4.036647
Ta	6.054970	6.054970	6.054970
