440

Mg	2.190579	2.239258	2.239258
Mg	4.429837	0.000000	4.429837
Mg	2.190579	6.620416	6.620416
Mg	4.429837	4.429837	0.000000
Mg	6.669095	2.239258	6.620416
Mg	0.000000	0.000000	0.000000
Mg	6.669095	6.620416	2.239258
Sc	1.108264	7.754494	3.321573
Sc	3.323572	1.106265	7.753409
Sc	3.324657	3.321573	5.538101
Sc	1.108264	1.105180	5.538101
Sc	1.108264	3.321573	7.754494
Sc	3.324657	5.538101	3.321573
Sc	3.323572	7.753409	1.106265
Sc	1.108264	5.538101	1.105180
Sc	5.536102	7.753409	7.753409
Sc	7.751410	1.105180	3.321573
Sc	7.751410	3.321573	1.105180
Sc	5.536102	1.106265	1.106265
Sc	5.535017	3.321573	3.321573
Sc	7.751410	5.538101	7.754494
Sc	7.751410	7.754494	5.538101
Sc	5.535017	5.538101	5.538101
O	3.399570	1.030267	1.030267
O	5.460382	3.404965	5.454710
O	5.460104	1.030267	7.829407
O	3.399292	3.404965	3.404965
O	3.262691	1.167146	5.627417
O	1.197580	7.692529	1.167146
O	1.197580	1.167146	7.692529
O	3.262691	7.692529	3.232257
O	3.399292	5.454710	5.454710
O	5.460104	7.829407	1.030267
O	5.460382	5.454710	3.404965
O	3.399570	7.829407	7.829407
O	3.262691	5.627417	1.167146
O	1.306041	3.123796	5.735879
O	1.306041	5.735879	3.123796
O	3.262691	3.232257	7.692529
O	7.834802	1.030545	5.454710
O	1.024873	3.404965	1.030545
O	1.024873	1.030545	3.404965
O	7.834802	3.404965	7.829129
O	7.662095	1.167146	1.167146
O	5.596983	7.692529	5.627417
O	5.596983	1.167146	3.232257
O	7.662095	7.692529	7.692529
O	7.834802	5.454710	1.030545
O	1.024873	7.829129	5.454710
O	1.024873	5.454710	7.829129
O	7.834802	7.829129	3.404965
O	7.553633	5.735879	5.735879
O	5.596983	3.232257	1.167146
O	5.596983	5.627417	7.692529
O	7.553633	3.123796	3.123796
Mg	2.190579	2.239258	11.098932
Mg	4.429837	0.000000	13.289511
Mg	2.190579	6.620416	15.480090
Mg	4.429837	4.429837	8.859674
Mg	6.669095	2.239258	15.480090
Mg	0.000000	0.000000	8.859674
Mg	6.669095	6.620416	11.098932
Sc	1.108264	7.754494	12.181247
Sc	3.323572	1.106265	16.613083
Sc	3.324657	3.321573	14.397776
Sc	1.108264	1.105180	14.397776
Sc	1.108264	3.321573	16.614168
Sc	3.324657	5.538101	12.181247
Sc	3.323572	7.753409	9.965940
Sc	1.108264	5.538101	9.964854
Sc	5.536102	7.753409	16.613083
Sc	7.751410	1.105180	12.181247
Sc	7.751410	3.321573	9.964854
Sc	5.536102	1.106265	9.965940
Sc	5.535017	3.321573	12.181247
Sc	7.751410	5.538101	16.614168
Sc	7.751410	7.754494	14.397776
Sc	5.535017	5.538101	14.397776
O	3.399570	1.030267	9.889941
O	5.460382	3.404965	14.314384
O	5.460104	1.030267	16.689081
O	3.399292	3.404965	12.264639
O	3.262691	1.167146	14.487091
O	1.197580	7.692529	10.026820
O	1.197580	1.167146	16.552203
O	3.262691	7.692529	12.091932
O	3.399292	5.454710	14.314384
O	5.460104	7.829407	9.889941
O	5.460382	5.454710	12.264639
O	3.399570	7.829407	16.689081
O	3.262691	5.627417	10.026820
O	1.306041	3.123796	14.595553
O	1.306041	5.735879	11.983470
O	3.262691	3.232257	16.552203
O	7.834802	1.030545	14.314384
O	1.024873	3.404965	9.890219
O	1.024873	1.030545	12.264639
O	7.834802	3.404965	16.688804
O	7.662095	1.167146	10.026820
O	5.596983	7.692529	14.487091
O	5.596983	1.167146	12.091932
O	7.662095	7.692529	16.552203
O	7.834802	5.454710	9.890219
O	1.024873	7.829129	14.314384
O	1.024873	5.454710	16.688804
O	7.834802	7.829129	12.264639
O	7.553633	5.735879	14.595553
O	5.596983	3.232257	10.026820
O	5.596983	5.627417	16.552203
O	7.553633	3.123796	11.983470
Mg	2.190579	11.098932	2.239258
Mg	4.429837	8.859674	4.429837
Mg	2.190579	15.480090	6.620416
Mg	4.429837	13.289511	0.000000
Mg	6.669095	11.098932	6.620416
Mg	0.000000	8.859674	0.000000
Mg	6.669095	15.480090	2.239258
Sc	1.108264	16.614168	3.321573
Sc	3.323572	9.965940	7.753409
Sc	3.324657	12.181247	5.538101
Sc	1.108264	9.964854	5.538101
Sc	1.108264	12.181247	7.754494
Sc	3.324657	14.397776	3.321573
Sc	3.323572	16.613083	1.106265
Sc	1.108264	14.397776	1.105180
Sc	5.536102	16.613083	7.753409
Sc	7.751410	9.964854	3.321573
Sc	7.751410	12.181247	1.105180
Sc	5.536102	9.965940	1.106265
Sc	5.535017	12.181247	3.321573
Sc	7.751410	14.397776	7.754494
Sc	7.751410	16.614168	5.538101
Sc	5.535017	14.397776	5.538101
O	3.399570	9.889941	1.030267
O	5.460382	12.264639	5.454710
O	5.460104	9.889941	7.829407
O	3.399292	12.264639	3.404965
O	3.262691	10.026820	5.627417
O	1.197580	16.552203	1.167146
O	1.197580	10.026820	7.692529
O	3.262691	16.552203	3.232257
O	3.399292	14.314384	5.454710
O	5.460104	16.689081	1.030267
O	5.460382	14.314384	3.404965
O	3.399570	16.689081	7.829407
O	3.262691	14.487091	1.167146
O	1.306041	11.983470	5.735879
O	1.306041	14.595553	3.123796
O	3.262691	12.091932	7.692529
O	7.834802	9.890219	5.454710
O	1.024873	12.264639	1.030545
O	1.024873	9.890219	3.404965
O	7.834802	12.264639	7.829129
O	7.662095	10.026820	1.167146
O	5.596983	16.552203	5.627417
O	5.596983	10.026820	3.232257
O	7.662095	16.552203	7.692529
O	7.834802	14.314384	1.030545
O	1.024873	16.688804	5.454710
O	1.024873	14.314384	7.829129
O	7.834802	16.688804	3.404965
O	7.553633	14.595553	5.735879
O	5.596983	12.091932	1.167146
O	5.596983	14.487091	7.692529
O	7.553633	11.983470	3.123796
Mg	2.190579	11.098932	11.098932
Mg	4.429837	8.859674	13.289511
Mg	2.190579	15.480090	15.480090
Mg	4.429837	13.289511	8.859674
Mg	6.669095	11.098932	15.480090
Mg	0.000000	8.859674	8.859674
Mg	6.669095	15.480090	11.098932
Sc	1.108264	16.614168	12.181247
Sc	3.323572	9.965940	16.613083
Sc	3.324657	12.181247	14.397776
Sc	1.108264	9.964854	14.397776
Sc	1.108264	12.181247	16.614168
Sc	3.324657	14.397776	12.181247
Sc	3.323572	16.613083	9.965940
Sc	1.108264	14.397776	9.964854
Sc	5.536102	16.613083	16.613083
Sc	7.751410	9.964854	12.181247
Sc	7.751410	12.181247	9.964854
Sc	5.536102	9.965940	9.965940
Sc	5.535017	12.181247	12.181247
Sc	7.751410	14.397776	16.614168
Sc	7.751410	16.614168	14.397776
Sc	5.535017	14.397776	14.397776
O	3.399570	9.889941	9.889941
O	5.460382	12.264639	14.314384
O	5.460104	9.889941	16.689081
O	3.399292	12.264639	12.264639
O	3.262691	10.026820	14.487091
O	1.197580	16.552203	10.026820
O	1.197580	10.026820	16.552203
O	3.262691	16.552203	12.091932
O	3.399292	14.314384	14.314384
O	5.460104	16.689081	9.889941
O	5.460382	14.314384	12.264639
O	3.399570	16.689081	16.689081
O	3.262691	14.487091	10.026820
O	1.306041	11.983470	14.595553
O	1.306041	14.595553	11.983470
O	3.262691	12.091932	16.552203
O	7.834802	9.890219	14.314384
O	1.024873	12.264639	9.890219
O	1.024873	9.890219	12.264639
O	7.834802	12.264639	16.688804
O	7.662095	10.026820	10.026820
O	5.596983	16.552203	14.487091
O	5.596983	10.026820	12.091932
O	7.662095	16.552203	16.552203
O	7.834802	14.314384	9.890219
O	1.024873	16.688804	14.314384
O	1.024873	14.314384	16.688804
O	7.834802	16.688804	12.264639
O	7.553633	14.595553	14.595553
O	5.596983	12.091932	10.026820
O	5.596983	14.487091	16.552203
O	7.553633	11.983470	11.983470
Mg	11.050253	2.239258	2.239258
Mg	13.289511	0.000000	4.429837
Mg	11.050253	6.620416	6.620416
Mg	13.289511	4.429837	0.000000
Mg	15.528770	2.239258	6.620416
Mg	8.859674	0.000000	0.000000
Mg	15.528770	6.620416	2.239258
Sc	9.967939	7.754494	3.321573
Sc	12.183246	1.106265	7.753409
Sc	12.184331	3.321573	5.538101
Sc	9.967939	1.105180	5.538101
Sc	9.967939	3.321573	7.754494
Sc	12.184331	5.538101	3.321573
Sc	12.183246	7.753409	1.106265
Sc	9.967939	5.538101	1.105180
Sc	14.395777	7.753409	7.753409
Sc	16.611084	1.105180	3.321573
Sc	16.611084	3.321573	1.105180
Sc	14.395777	1.106265	1.106265
Sc	14.394692	3.321573	3.321573
Sc	16.611084	5.538101	7.754494
Sc	16.611084	7.754494	5.538101
Sc	14.394692	5.538101	5.538101
O	12.259244	1.030267	1.030267
O	14.320056	3.404965	5.454710
O	14.319779	1.030267	7.829407
O	12.258967	3.404965	3.404965
O	12.122366	1.167146	5.627417
O	10.057254	7.692529	1.167146
O	10.057254	1.167146	7.692529
O	12.122366	7.692529	3.232257
O	12.258967	5.454710	5.454710
O	14.319779	7.829407	1.030267
O	14.320056	5.454710	3.404965
O	12.259244	7.829407	7.829407
O	12.122366	5.627417	1.167146
O	10.165716	3.123796	5.735879
O	10.165716	5.735879	3.123796
O	12.122366	3.232257	7.692529
O	16.694476	1.030545	5.454710
O	9.884547	3.404965	1.030545
O	9.884547	1.030545	3.404965
O	16.694476	3.404965	7.829129
O	16.521769	1.167146	1.167146
O	14.456657	7.692529	5.627417
O	14.456657	1.167146	3.232257
O	16.521769	7.692529	7.692529
O	16.694476	5.454710	1.030545
O	9.884547	7.829129	5.454710
O	9.884547	5.454710	7.829129
O	16.694476	7.829129	3.404965
O	16.413307	5.735879	5.735879
O	14.456657	3.232257	1.167146
O	14.456657	5.627417	7.692529
O	16.413307	3.123796	3.123796
Mg	11.050253	2.239258	11.098932
Mg	13.289511	0.000000	13.289511
Mg	11.050253	6.620416	15.480090
Mg	13.289511	4.429837	8.859674
Mg	15.528770	2.239258	15.480090
Mg	8.859674	0.000000	8.859674
Mg	15.528770	6.620416	11.098932
Sc	9.967939	7.754494	12.181247
Sc	12.183246	1.106265	16.613083
Sc	12.184331	3.321573	14.397776
Sc	9.967939	1.105180	14.397776
Sc	9.967939	3.321573	16.614168
Sc	12.184331	5.538101	12.181247
Sc	12.183246	7.753409	9.965940
Sc	9.967939	5.538101	9.964854
Sc	14.395777	7.753409	16.613083
Sc	16.611084	1.105180	12.181247
Sc	16.611084	3.321573	9.964854
Sc	14.395777	1.106265	9.965940
Sc	14.394692	3.321573	12.181247
Sc	16.611084	5.538101	16.614168
Sc	16.611084	7.754494	14.397776
Sc	14.394692	5.538101	14.397776
O	12.259244	1.030267	9.889941
O	14.320056	3.404965	14.314384
O	14.319779	1.030267	16.689081
O	12.258967	3.404965	12.264639
O	12.122366	1.167146	14.487091
O	10.057254	7.692529	10.026820
O	10.057254	1.167146	16.552203
O	12.122366	7.692529	12.091932
O	12.258967	5.454710	14.314384
O	14.319779	7.829407	9.889941
O	14.320056	5.454710	12.264639
O	12.259244	7.829407	16.689081
O	12.122366	5.627417	10.026820
O	10.165716	3.123796	14.595553
O	10.165716	5.735879	11.983470
O	12.122366	3.232257	16.552203
O	16.694476	1.030545	14.314384
O	9.884547	3.404965	9.890219
O	9.884547	1.030545	12.264639
O	16.694476	3.404965	16.688804
O	16.521769	1.167146	10.026820
O	14.456657	7.692529	14.487091
O	14.456657	1.167146	12.091932
O	16.521769	7.692529	16.552203
O	16.694476	5.454710	9.890219
O	9.884547	7.829129	14.314384
O	9.884547	5.454710	16.688804
O	16.694476	7.829129	12.264639
O	16.413307	5.735879	14.595553
O	14.456657	3.232257	10.026820
O	14.456657	5.627417	16.552203
O	16.413307	3.123796	11.983470
Mg	11.050253	11.098932	2.239258
Mg	13.289511	8.859674	4.429837
Mg	11.050253	15.480090	6.620416
Mg	13.289511	13.289511	0.000000
Mg	15.528770	11.098932	6.620416
Mg	8.859674	8.859674	0.000000
Mg	15.528770	15.480090	2.239258
Sc	9.967939	16.614168	3.321573
Sc	12.183246	9.965940	7.753409
Sc	12.184331	12.181247	5.538101
Sc	9.967939	9.964854	5.538101
Sc	9.967939	12.181247	7.754494
Sc	12.184331	14.397776	3.321573
Sc	12.183246	16.613083	1.106265
Sc	9.967939	14.397776	1.105180
Sc	14.395777	16.613083	7.753409
Sc	16.611084	9.964854	3.321573
Sc	16.611084	12.181247	1.105180
Sc	14.395777	9.965940	1.106265
Sc	14.394692	12.181247	3.321573
Sc	16.611084	14.397776	7.754494
Sc	16.611084	16.614168	5.538101
Sc	14.394692	14.397776	5.538101
O	12.259244	9.889941	1.030267
O	14.320056	12.264639	5.454710
O	14.319779	9.889941	7.829407
O	12.258967	12.264639	3.404965
O	12.122366	10.026820	5.627417
O	10.057254	16.552203	1.167146
O	10.057254	10.026820	7.692529
O	12.122366	16.552203	3.232257
O	12.258967	14.314384	5.454710
O	14.319779	16.689081	1.030267
O	14.320056	14.314384	3.404965
O	12.259244	16.689081	7.829407
O	12.122366	14.487091	1.167146
O	10.165716	11.983470	5.735879
O	10.165716	14.595553	3.123796
O	12.122366	12.091932	7.692529
O	16.694476	9.890219	5.454710
O	9.884547	12.264639	1.030545
O	9.884547	9.890219	3.404965
O	16.694476	12.264639	7.829129
O	16.521769	10.026820	1.167146
O	14.456657	16.552203	5.627417
O	14.456657	10.026820	3.232257
O	16.521769	16.552203	7.692529
O	16.694476	14.314384	1.030545
O	9.884547	16.688804	5.454710
O	9.884547	14.314384	7.829129
O	16.694476	16.688804	3.404965
O	16.413307	14.595553	5.735879
O	14.456657	12.091932	1.167146
O	14.456657	14.487091	7.692529
O	16.413307	11.983470	3.123796
Mg	11.050253	11.098932	11.098932
Mg	13.289511	8.859674	13.289511
Mg	11.050253	15.480090	15.480090
Mg	13.289511	13.289511	8.859674
Mg	15.528770	11.098932	15.480090
Mg	8.859674	8.859674	8.859674
Mg	15.528770	15.480090	11.098932
Sc	9.967939	16.614168	12.181247
Sc	12.183246	9.965940	16.613083
Sc	12.184331	12.181247	14.397776
Sc	9.967939	9.964854	14.397776
Sc	9.967939	12.181247	16.614168
Sc	12.184331	14.397776	12.181247
Sc	12.183246	16.613083	9.965940
Sc	9.967939	14.397776	9.964854
Sc	14.395777	16.613083	16.613083
Sc	16.611084	9.964854	12.181247
Sc	16.611084	12.181247	9.964854
Sc	14.395777	9.965940	9.965940
Sc	14.394692	12.181247	12.181247
Sc	16.611084	14.397776	16.614168
Sc	16.611084	16.614168	14.397776
Sc	14.394692	14.397776	14.397776
O	12.259244	9.889941	9.889941
O	14.320056	12.264639	14.314384
O	14.319779	9.889941	16.689081
O	12.258967	12.264639	12.264639
O	12.122366	10.026820	14.487091
O	10.057254	16.552203	10.026820
O	10.057254	10.026820	16.552203
O	12.122366	16.552203	12.091932
O	12.258967	14.314384	14.314384
O	14.319779	16.689081	9.889941
O	14.320056	14.314384	12.264639
O	12.259244	16.689081	16.689081
O	12.122366	14.487091	10.026820
O	10.165716	11.983470	14.595553
O	10.165716	14.595553	11.983470
O	12.122366	12.091932	16.552203
O	16.694476	9.890219	14.314384
O	9.884547	12.264639	9.890219
O	9.884547	9.890219	12.264639
O	16.694476	12.264639	16.688804
O	16.521769	10.026820	10.026820
O	14.456657	16.552203	14.487091
O	14.456657	10.026820	12.091932
O	16.521769	16.552203	16.552203
O	16.694476	14.314384	9.890219
O	9.884547	16.688804	14.314384
O	9.884547	14.314384	16.688804
O	16.694476	16.688804	12.264639
O	16.413307	14.595553	14.595553
O	14.456657	12.091932	10.026820
O	14.456657	14.487091	16.552203
O	16.413307	11.983470	11.983470
