40

Cd	2.208991	2.208991	2.208991
Cl	0.000000	0.000000	0.000000
O	0.000000	2.208991	2.208991
O	2.208991	0.000000	2.208991
O	2.208991	2.208991	0.000000
Cd	2.208991	2.208991	6.626972
Cl	0.000000	0.000000	4.417981
O	0.000000	2.208991	6.626972
O	2.208991	0.000000	6.626972
O	2.208991	2.208991	4.417981
Cd	2.208991	6.626972	2.208991
Cl	0.000000	4.417981	0.000000
O	0.000000	6.626972	2.208991
O	2.208991	4.417981	2.208991
O	2.208991	6.626972	0.000000
Cd	2.208991	6.626972	6.626972
Cl	0.000000	4.417981	4.417981
O	0.000000	6.626972	6.626972
O	2.208991	4.417981	6.626972
O	2.208991	6.626972	4.417981
Cd	6.626972	2.208991	2.208991
Cl	4.417981	0.000000	0.000000
O	4.417981	2.208991	2.208991
O	6.626972	0.000000	2.208991
O	6.626972	2.208991	0.000000
Cd	6.626972	2.208991	6.626972
Cl	4.417981	0.000000	4.417981
O	4.417981	2.208991	6.626972
O	6.626972	0.000000	6.626972
O	6.626972	2.208991	4.417981
Cd	6.626972	6.626972	2.208991
Cl	4.417981	4.417981	0.000000
O	4.417981	6.626972	2.208991
O	6.626972	4.417981	2.208991
O	6.626972	6.626972	0.000000
Cd	6.626972	6.626972	6.626972
Cl	4.417981	4.417981	4.417981
O	4.417981	6.626972	6.626972
O	6.626972	4.417981	6.626972
O	6.626972	6.626972	4.417981
