40

Ho	2.129553	2.129553	2.129553
O	2.129553	2.129553	0.000000
O	2.129553	0.000000	2.129553
O	0.000000	2.129553	2.129553
W	0.000000	0.000000	0.000000
Ho	2.129553	2.129553	6.388659
O	2.129553	2.129553	4.259106
O	2.129553	0.000000	6.388659
O	0.000000	2.129553	6.388659
W	0.000000	0.000000	4.259106
Ho	2.129553	6.388659	2.129553
O	2.129553	6.388659	0.000000
O	2.129553	4.259106	2.129553
O	0.000000	6.388659	2.129553
W	0.000000	4.259106	0.000000
Ho	2.129553	6.388659	6.388659
O	2.129553	6.388659	4.259106
O	2.129553	4.259106	6.388659
O	0.000000	6.388659	6.388659
W	0.000000	4.259106	4.259106
Ho	6.388659	2.129553	2.129553
O	6.388659	2.129553	0.000000
O	6.388659	0.000000	2.129553
O	4.259106	2.129553	2.129553
W	4.259106	0.000000	0.000000
Ho	6.388659	2.129553	6.388659
O	6.388659	2.129553	4.259106
O	6.388659	0.000000	6.388659
O	4.259106	2.129553	6.388659
W	4.259106	0.000000	4.259106
Ho	6.388659	6.388659	2.129553
O	6.388659	6.388659	0.000000
O	6.388659	4.259106	2.129553
O	4.259106	6.388659	2.129553
W	4.259106	4.259106	0.000000
Ho	6.388659	6.388659	6.388659
O	6.388659	6.388659	4.259106
O	6.388659	4.259106	6.388659
O	4.259106	6.388659	6.388659
W	4.259106	4.259106	4.259106
