40

O	1.999980	1.999980	0.000000
O	1.999980	0.000000	1.999980
O	0.000000	1.999980	1.999980
Sc	1.999980	1.999980	1.999980
Tm	0.000000	0.000000	0.000000
O	1.999980	1.999980	3.999961
O	1.999980	0.000000	5.999941
O	0.000000	1.999980	5.999941
Sc	1.999980	1.999980	5.999941
Tm	0.000000	0.000000	3.999961
O	1.999980	5.999941	0.000000
O	1.999980	3.999961	1.999980
O	0.000000	5.999941	1.999980
Sc	1.999980	5.999941	1.999980
Tm	0.000000	3.999961	0.000000
O	1.999980	5.999941	3.999961
O	1.999980	3.999961	5.999941
O	0.000000	5.999941	5.999941
Sc	1.999980	5.999941	5.999941
Tm	0.000000	3.999961	3.999961
O	5.999941	1.999980	0.000000
O	5.999941	0.000000	1.999980
O	3.999961	1.999980	1.999980
Sc	5.999941	1.999980	1.999980
Tm	3.999961	0.000000	0.000000
O	5.999941	1.999980	3.999961
O	5.999941	0.000000	5.999941
O	3.999961	1.999980	5.999941
Sc	5.999941	1.999980	5.999941
Tm	3.999961	0.000000	3.999961
O	5.999941	5.999941	0.000000
O	5.999941	3.999961	1.999980
O	3.999961	5.999941	1.999980
Sc	5.999941	5.999941	1.999980
Tm	3.999961	3.999961	0.000000
O	5.999941	5.999941	3.999961
O	5.999941	3.999961	5.999941
O	3.999961	5.999941	5.999941
Sc	5.999941	5.999941	5.999941
Tm	3.999961	3.999961	3.999961
