40

N	0.000000	0.000000	0.000000
O	0.000000	1.906874	1.906874
O	1.906874	0.000000	1.906874
O	1.906874	1.906874	0.000000
Rh	1.906874	1.906874	1.906874
N	0.000000	0.000000	3.813748
O	0.000000	1.906874	5.720622
O	1.906874	0.000000	5.720622
O	1.906874	1.906874	3.813748
Rh	1.906874	1.906874	5.720622
N	0.000000	3.813748	0.000000
O	0.000000	5.720622	1.906874
O	1.906874	3.813748	1.906874
O	1.906874	5.720622	0.000000
Rh	1.906874	5.720622	1.906874
N	0.000000	3.813748	3.813748
O	0.000000	5.720622	5.720622
O	1.906874	3.813748	5.720622
O	1.906874	5.720622	3.813748
Rh	1.906874	5.720622	5.720622
N	3.813748	0.000000	0.000000
O	3.813748	1.906874	1.906874
O	5.720622	0.000000	1.906874
O	5.720622	1.906874	0.000000
Rh	5.720622	1.906874	1.906874
N	3.813748	0.000000	3.813748
O	3.813748	1.906874	5.720622
O	5.720622	0.000000	5.720622
O	5.720622	1.906874	3.813748
Rh	5.720622	1.906874	5.720622
N	3.813748	3.813748	0.000000
O	3.813748	5.720622	1.906874
O	5.720622	3.813748	1.906874
O	5.720622	5.720622	0.000000
Rh	5.720622	5.720622	1.906874
N	3.813748	3.813748	3.813748
O	3.813748	5.720622	5.720622
O	5.720622	3.813748	5.720622
O	5.720622	5.720622	3.813748
Rh	5.720622	5.720622	5.720622
