40

Ga	0.000000	0.000000	0.000000
O	2.163949	2.163949	0.000000
O	2.163949	0.000000	2.163949
O	0.000000	2.163949	2.163949
Rb	2.163949	2.163949	2.163949
Ga	0.000000	0.000000	4.327880
O	2.163949	2.163949	4.327880
O	2.163949	0.000000	6.491829
O	0.000000	2.163949	6.491829
Rb	2.163949	2.163949	6.491829
Ga	0.000000	4.327880	0.000000
O	2.163949	6.491829	0.000000
O	2.163949	4.327880	2.163949
O	0.000000	6.491829	2.163949
Rb	2.163949	6.491829	2.163949
Ga	0.000000	4.327880	4.327880
O	2.163949	6.491829	4.327880
O	2.163949	4.327880	6.491829
O	0.000000	6.491829	6.491829
Rb	2.163949	6.491829	6.491829
Ga	4.327880	0.000000	0.000000
O	6.491829	2.163949	0.000000
O	6.491829	0.000000	2.163949
O	4.327880	2.163949	2.163949
Rb	6.491829	2.163949	2.163949
Ga	4.327880	0.000000	4.327880
O	6.491829	2.163949	4.327880
O	6.491829	0.000000	6.491829
O	4.327880	2.163949	6.491829
Rb	6.491829	2.163949	6.491829
Ga	4.327880	4.327880	0.000000
O	6.491829	6.491829	0.000000
O	6.491829	4.327880	2.163949
O	4.327880	6.491829	2.163949
Rb	6.491829	6.491829	2.163949
Ga	4.327880	4.327880	4.327880
O	6.491829	6.491829	4.327880
O	6.491829	4.327880	6.491829
O	4.327880	6.491829	6.491829
Rb	6.491829	6.491829	6.491829
