40

Ga	0.000000	0.000000	0.000000
O	0.000000	2.511298	2.511298
O	2.511298	0.000000	2.511298
O	2.511298	2.511298	0.000000
Rb	2.511298	2.511298	2.511298
Ga	0.000000	0.000000	5.022596
O	0.000000	2.511298	7.533893
O	2.511298	0.000000	7.533893
O	2.511298	2.511298	5.022596
Rb	2.511298	2.511298	7.533893
Ga	0.000000	5.022596	0.000000
O	0.000000	7.533893	2.511298
O	2.511298	5.022596	2.511298
O	2.511298	7.533893	0.000000
Rb	2.511298	7.533893	2.511298
Ga	0.000000	5.022596	5.022596
O	0.000000	7.533893	7.533893
O	2.511298	5.022596	7.533893
O	2.511298	7.533893	5.022596
Rb	2.511298	7.533893	7.533893
Ga	5.022596	0.000000	0.000000
O	5.022596	2.511298	2.511298
O	7.533893	0.000000	2.511298
O	7.533893	2.511298	0.000000
Rb	7.533893	2.511298	2.511298
Ga	5.022596	0.000000	5.022596
O	5.022596	2.511298	7.533893
O	7.533893	0.000000	7.533893
O	7.533893	2.511298	5.022596
Rb	7.533893	2.511298	7.533893
Ga	5.022596	5.022596	0.000000
O	5.022596	7.533893	2.511298
O	7.533893	5.022596	2.511298
O	7.533893	7.533893	0.000000
Rb	7.533893	7.533893	2.511298
Ga	5.022596	5.022596	5.022596
O	5.022596	7.533893	7.533893
O	7.533893	5.022596	7.533893
O	7.533893	7.533893	5.022596
Rb	7.533893	7.533893	7.533893
