40

Ga	0.000000	0.000000	0.000000
O	0.000000	2.509890	2.509890
O	2.509890	0.000000	2.509890
O	2.509890	2.509890	0.000000
Rb	2.509890	2.509890	2.509890
Ga	0.000000	0.000000	5.019780
O	0.000000	2.509890	7.529671
O	2.509890	0.000000	7.529671
O	2.509890	2.509890	5.019780
Rb	2.509890	2.509890	7.529671
Ga	0.000000	5.019780	0.000000
O	0.000000	7.529671	2.509890
O	2.509890	5.019780	2.509890
O	2.509890	7.529671	0.000000
Rb	2.509890	7.529671	2.509890
Ga	0.000000	5.019780	5.019780
O	0.000000	7.529671	7.529671
O	2.509890	5.019780	7.529671
O	2.509890	7.529671	5.019780
Rb	2.509890	7.529671	7.529671
Ga	5.019780	0.000000	0.000000
O	5.019780	2.509890	2.509890
O	7.529671	0.000000	2.509890
O	7.529671	2.509890	0.000000
Rb	7.529671	2.509890	2.509890
Ga	5.019780	0.000000	5.019780
O	5.019780	2.509890	7.529671
O	7.529671	0.000000	7.529671
O	7.529671	2.509890	5.019780
Rb	7.529671	2.509890	7.529671
Ga	5.019780	5.019780	0.000000
O	5.019780	7.529671	2.509890
O	7.529671	5.019780	2.509890
O	7.529671	7.529671	0.000000
Rb	7.529671	7.529671	2.509890
Ga	5.019780	5.019780	5.019780
O	5.019780	7.529671	7.529671
O	7.529671	5.019780	7.529671
O	7.529671	7.529671	5.019780
Rb	7.529671	7.529671	7.529671
