176

Nd	-1.293609	-3.880827	-1.293609
Nd	1.293609	-1.293609	3.880827
Nd	-1.293609	-1.293609	6.468045
Nd	1.293609	-3.880827	1.293609
O	-2.587218	-0.468271	2.587218
O	-2.587218	-2.587218	0.468271
O	-4.706166	-2.587218	2.587218
O	-0.000000	0.000000	2.118947
O	-3.055489	0.000000	5.174436
O	-0.000000	-2.118947	-0.000000
O	-0.468271	-2.587218	2.587218
O	-2.587218	-2.587218	4.706166
O	-2.587218	-4.706166	2.587218
O	0.000000	0.000000	5.174436
O	2.587218	-2.587218	2.587218
O	3.055489	0.000000	5.174436
O	-0.000000	0.000000	8.229925
O	-0.000000	-3.055489	5.174436
Ru	-1.293609	-1.293609	1.293609
Ru	-3.880827	-1.293609	3.880827
Ru	-3.880827	-3.880827	1.293609
Ru	-1.293609	-3.880827	3.880827
Nd	3.880827	-3.880827	3.880827
Nd	6.468045	-1.293609	9.055264
Nd	3.880827	-1.293609	11.642482
Nd	6.468045	-3.880827	6.468045
O	2.587218	-0.468271	7.761655
O	2.587218	-2.587218	5.642707
O	0.468271	-2.587218	7.761655
O	5.174436	0.000000	7.293384
O	2.118947	0.000000	10.348873
O	5.174436	-2.118947	5.174436
O	4.706166	-2.587218	7.761655
O	2.587218	-2.587218	9.880602
O	2.587218	-4.706166	7.761655
O	5.174436	0.000000	10.348873
O	7.761655	-2.587218	7.761655
O	8.229925	0.000000	10.348873
O	5.174436	0.000000	13.404362
O	5.174436	-3.055489	10.348873
Ru	3.880827	-1.293609	6.468045
Ru	1.293609	-1.293609	9.055264
Ru	1.293609	-3.880827	6.468045
Ru	3.880827	-3.880827	9.055264
Nd	-1.293609	-9.055264	-6.468045
Nd	1.293609	-6.468045	-1.293609
Nd	-1.293609	-6.468045	1.293609
Nd	1.293609	-9.055264	-3.880827
O	-2.587218	-5.642707	-2.587218
O	-2.587218	-7.761655	-4.706166
O	-4.706166	-7.761655	-2.587218
O	-0.000000	-5.174436	-3.055489
O	-3.055489	-5.174436	0.000000
O	-0.000000	-7.293384	-5.174436
O	-0.468271	-7.761655	-2.587218
O	-2.587218	-7.761655	-0.468271
O	-2.587218	-9.880602	-2.587218
O	0.000000	-5.174436	0.000000
O	2.587218	-7.761655	-2.587218
O	3.055489	-5.174436	0.000000
O	-0.000000	-5.174436	3.055489
O	-0.000000	-8.229925	0.000000
Ru	-1.293609	-6.468045	-3.880827
Ru	-3.880827	-6.468045	-1.293609
Ru	-3.880827	-9.055264	-3.880827
Ru	-1.293609	-9.055264	-1.293609
Nd	3.880827	-9.055264	-1.293609
Nd	6.468045	-6.468045	3.880827
Nd	3.880827	-6.468045	6.468045
Nd	6.468045	-9.055264	1.293609
O	2.587218	-5.642707	2.587218
O	2.587218	-7.761655	0.468271
O	0.468271	-7.761655	2.587218
O	5.174436	-5.174436	2.118947
O	2.118947	-5.174436	5.174436
O	5.174436	-7.293384	0.000000
O	4.706166	-7.761655	2.587218
O	2.587218	-7.761655	4.706166
O	2.587218	-9.880602	2.587218
O	5.174436	-5.174436	5.174436
O	7.761655	-7.761655	2.587218
O	8.229925	-5.174436	5.174436
O	5.174436	-5.174436	8.229925
O	5.174436	-8.229925	5.174436
Ru	3.880827	-6.468045	1.293609
Ru	1.293609	-6.468045	3.880827
Ru	1.293609	-9.055264	1.293609
Ru	3.880827	-9.055264	3.880827
Nd	-6.468045	-3.880827	3.880827
Nd	-3.880827	-1.293609	9.055264
Nd	-6.468045	-1.293609	11.642482
Nd	-3.880827	-3.880827	6.468045
O	-7.761655	-0.468271	7.761655
O	-7.761655	-2.587218	5.642707
O	-9.880602	-2.587218	7.761655
O	-5.174436	0.000000	7.293384
O	-8.229925	0.000000	10.348873
O	-5.174436	-2.118947	5.174436
O	-5.642707	-2.587218	7.761655
O	-7.761655	-2.587218	9.880602
O	-7.761655	-4.706166	7.761655
O	-5.174436	0.000000	10.348873
O	-2.587218	-2.587218	7.761655
O	-2.118947	0.000000	10.348873
O	-5.174436	0.000000	13.404362
O	-5.174436	-3.055489	10.348873
Ru	-6.468045	-1.293609	6.468045
Ru	-9.055264	-1.293609	9.055264
Ru	-9.055264	-3.880827	6.468045
Ru	-6.468045	-3.880827	9.055264
Nd	-1.293609	-3.880827	9.055264
Nd	1.293609	-1.293609	14.229700
Nd	-1.293609	-1.293609	16.816918
Nd	1.293609	-3.880827	11.642482
O	-2.587218	-0.468271	12.936091
O	-2.587218	-2.587218	10.817143
O	-4.706166	-2.587218	12.936091
O	0.000000	0.000000	12.467820
O	-3.055489	0.000000	15.523309
O	0.000000	-2.118947	10.348873
O	-0.468271	-2.587218	12.936091
O	-2.587218	-2.587218	15.055038
O	-2.587218	-4.706166	12.936091
O	0.000000	0.000000	15.523309
O	2.587218	-2.587218	12.936091
O	3.055489	0.000000	15.523309
O	0.000000	0.000000	18.578798
O	0.000000	-3.055489	15.523309
Ru	-1.293609	-1.293609	11.642482
Ru	-3.880827	-1.293609	14.229700
Ru	-3.880827	-3.880827	11.642482
Ru	-1.293609	-3.880827	14.229700
Nd	-6.468045	-9.055264	-1.293609
Nd	-3.880827	-6.468045	3.880827
Nd	-6.468045	-6.468045	6.468045
Nd	-3.880827	-9.055264	1.293609
O	-7.761655	-5.642707	2.587218
O	-7.761655	-7.761655	0.468271
O	-9.880602	-7.761655	2.587218
O	-5.174436	-5.174436	2.118947
O	-8.229925	-5.174436	5.174436
O	-5.174436	-7.293384	0.000000
O	-5.642707	-7.761655	2.587218
O	-7.761655	-7.761655	4.706166
O	-7.761655	-9.880602	2.587218
O	-5.174436	-5.174436	5.174436
O	-2.587218	-7.761655	2.587218
O	-2.118947	-5.174436	5.174436
O	-5.174436	-5.174436	8.229925
O	-5.174436	-8.229925	5.174436
Ru	-6.468045	-6.468045	1.293609
Ru	-9.055264	-6.468045	3.880827
Ru	-9.055264	-9.055264	1.293609
Ru	-6.468045	-9.055264	3.880827
Nd	-1.293609	-9.055264	3.880827
Nd	1.293609	-6.468045	9.055264
Nd	-1.293609	-6.468045	11.642482
Nd	1.293609	-9.055264	6.468045
O	-2.587218	-5.642707	7.761655
O	-2.587218	-7.761655	5.642707
O	-4.706166	-7.761655	7.761655
O	0.000000	-5.174436	7.293384
O	-3.055489	-5.174436	10.348873
O	0.000000	-7.293384	5.174436
O	-0.468271	-7.761655	7.761655
O	-2.587218	-7.761655	9.880602
O	-2.587218	-9.880602	7.761655
O	0.000000	-5.174436	10.348873
O	2.587218	-7.761655	7.761655
O	3.055489	-5.174436	10.348873
O	0.000000	-5.174436	13.404362
O	0.000000	-8.229925	10.348873
Ru	-1.293609	-6.468045	6.468045
Ru	-3.880827	-6.468045	9.055264
Ru	-3.880827	-9.055264	6.468045
Ru	-1.293609	-9.055264	9.055264
