112

Cu	0.000000	0.000000	0.000000
Cu	2.120930	-2.121502	-2.121502
O	3.286302	-0.955426	-0.955426
O	-0.955557	0.955426	-3.287577
O	0.955557	-0.955426	-3.287577
O	1.165373	1.166076	-1.166076
O	5.197417	0.955426	-0.955426
O	1.165373	3.076928	-3.076928
O	3.076487	3.076928	-1.166076
O	3.076487	1.166076	-3.076928
Ti	-1.060465	-1.060751	-3.182253
Ti	3.181395	1.060751	-1.060751
Ti	5.302325	-1.060751	-1.060751
Ti	1.060465	1.060751	-3.182253
Cu	4.241860	4.243004	0.000000
Cu	6.362789	2.121502	-2.121502
O	7.528162	3.287577	-0.955426
O	3.286302	5.198430	-3.287577
O	5.197417	3.287577	-3.287577
O	5.407232	5.409079	-1.166076
O	9.439276	5.198430	-0.955426
O	5.407232	7.319932	-3.076928
O	7.318347	7.319932	-1.166076
O	7.318347	5.409079	-3.076928
Ti	3.181395	3.182253	-3.182253
Ti	7.423254	5.303755	-1.060751
Ti	9.544184	3.182253	-1.060751
Ti	5.302325	5.303755	-3.182253
Cu	-4.241860	0.000000	-4.243004
Cu	-2.120930	-2.121502	-6.364505
O	-0.955557	-0.955426	-5.198430
O	-5.197417	0.955426	-7.530581
O	-3.286302	-0.955426	-7.530581
O	-3.076487	1.166076	-5.409079
O	0.955557	0.955426	-5.198430
O	-3.076487	3.076928	-7.319932
O	-1.165373	3.076928	-5.409079
O	-1.165373	1.166076	-7.319932
Ti	-5.302325	-1.060751	-7.425256
Ti	-1.060465	1.060751	-5.303755
Ti	1.060465	-1.060751	-5.303755
Ti	-3.181395	1.060751	-7.425256
Cu	0.000000	4.243004	-4.243004
Cu	2.120930	2.121502	-6.364505
O	3.286302	3.287577	-5.198430
O	-0.955557	5.198430	-7.530581
O	0.955557	3.287577	-7.530581
O	1.165373	5.409079	-5.409079
O	5.197417	5.198430	-5.198430
O	1.165373	7.319932	-7.319932
O	3.076487	7.319932	-5.409079
O	3.076487	5.409079	-7.319932
Ti	-1.060465	3.182253	-7.425256
Ti	3.181395	5.303755	-5.303755
Ti	5.302325	3.182253	-5.303755
Ti	1.060465	5.303755	-7.425256
Cu	4.241860	-4.243004	0.000000
Cu	6.362789	-6.364505	-2.121502
O	7.528162	-5.198430	-0.955426
O	3.286302	-3.287577	-3.287577
O	5.197417	-5.198430	-3.287577
O	5.407232	-3.076928	-1.166076
O	9.439276	-3.287577	-0.955426
O	5.407232	-1.166076	-3.076928
O	7.318347	-1.166076	-1.166076
O	7.318347	-3.076928	-3.076928
Ti	3.181395	-5.303755	-3.182253
Ti	7.423254	-3.182253	-1.060751
Ti	9.544184	-5.303754	-1.060751
Ti	5.302325	-3.182253	-3.182253
Cu	8.483719	0.000000	0.000000
Cu	10.604649	-2.121502	-2.121502
O	11.770022	-0.955426	-0.955426
O	7.528162	0.955426	-3.287577
O	9.439276	-0.955426	-3.287577
O	9.649092	1.166076	-1.166076
O	13.681136	0.955426	-0.955426
O	9.649092	3.076928	-3.076928
O	11.560206	3.076928	-1.166076
O	11.560206	1.166076	-3.076928
Ti	7.423254	-1.060751	-3.182253
Ti	11.665114	1.060751	-1.060751
Ti	13.786044	-1.060751	-1.060751
Ti	9.544184	1.060751	-3.182253
Cu	0.000000	-4.243004	-4.243004
Cu	2.120930	-6.364505	-6.364505
O	3.286302	-5.198430	-5.198430
O	-0.955557	-3.287577	-7.530581
O	0.955557	-5.198430	-7.530581
O	1.165373	-3.076928	-5.409079
O	5.197417	-3.287577	-5.198430
O	1.165373	-1.166076	-7.319932
O	3.076487	-1.166076	-5.409079
O	3.076487	-3.076928	-7.319932
Ti	-1.060465	-5.303755	-7.425256
Ti	3.181395	-3.182253	-5.303755
Ti	5.302325	-5.303754	-5.303755
Ti	1.060465	-3.182253	-7.425256
Cu	4.241860	0.000000	-4.243004
Cu	6.362789	-2.121502	-6.364505
O	7.528162	-0.955426	-5.198430
O	3.286302	0.955426	-7.530581
O	5.197417	-0.955426	-7.530581
O	5.407232	1.166076	-5.409079
O	9.439276	0.955426	-5.198430
O	5.407232	3.076928	-7.319932
O	7.318347	3.076928	-5.409079
O	7.318347	1.166076	-7.319932
Ti	3.181395	-1.060751	-7.425256
Ti	7.423254	1.060751	-5.303755
Ti	9.544184	-1.060751	-5.303755
Ti	5.302325	1.060751	-7.425256
