112

Cd	0.000000	0.000000	0.000000
Cd	2.374061	-2.374952	-2.374952
Er	-1.187030	-1.187476	-3.562428
Er	3.561091	1.187476	-1.187476
Er	5.935152	-1.187476	-1.187476
Er	1.187030	1.187476	-3.562428
O	3.683661	-1.064376	-1.064376
O	-1.064461	1.064376	-3.685528
O	1.064461	-1.064376	-3.685528
O	1.309600	1.310576	-1.310576
O	5.812583	1.064376	-1.064376
O	1.309600	3.439328	-3.439328
O	3.438522	3.439328	-1.310576
O	3.438522	1.310576	-3.439328
Cd	4.748122	4.749904	0.000000
Cd	7.122183	2.374952	-2.374952
Er	3.561091	3.562428	-3.562428
Er	8.309213	5.937379	-1.187476
Er	10.683274	3.562428	-1.187476
Er	5.935152	5.937379	-3.562428
O	8.431783	3.685528	-1.064376
O	3.683661	5.814279	-3.685528
O	5.812583	3.685528	-3.685528
O	6.057722	6.060479	-1.310576
O	10.560705	5.814279	-1.064376
O	6.057722	8.189231	-3.439328
O	8.186644	8.189231	-1.310576
O	8.186644	6.060479	-3.439328
Cd	-4.748122	0.000000	-4.749904
Cd	-2.374061	-2.374952	-7.124855
Er	-5.935152	-1.187476	-8.312331
Er	-1.187030	1.187476	-5.937379
Er	1.187030	-1.187476	-5.937379
Er	-3.561091	1.187476	-8.312331
O	-1.064461	-1.064376	-5.814279
O	-5.812583	1.064376	-8.435431
O	-3.683661	-1.064376	-8.435431
O	-3.438522	1.310576	-6.060479
O	1.064461	1.064376	-5.814279
O	-3.438522	3.439328	-8.189231
O	-1.309600	3.439328	-6.060479
O	-1.309600	1.310576	-8.189231
Cd	0.000000	4.749904	-4.749904
Cd	2.374061	2.374952	-7.124855
Er	-1.187030	3.562428	-8.312331
Er	3.561091	5.937379	-5.937379
Er	5.935152	3.562428	-5.937379
Er	1.187030	5.937379	-8.312331
O	3.683661	3.685528	-5.814279
O	-1.064461	5.814279	-8.435431
O	1.064461	3.685528	-8.435431
O	1.309600	6.060479	-6.060479
O	5.812583	5.814279	-5.814279
O	1.309600	8.189231	-8.189231
O	3.438522	8.189231	-6.060479
O	3.438522	6.060479	-8.189231
Cd	4.748122	-4.749904	0.000000
Cd	7.122183	-7.124855	-2.374952
Er	3.561091	-5.937379	-3.562428
Er	8.309213	-3.562428	-1.187476
Er	10.683274	-5.937379	-1.187476
Er	5.935152	-3.562428	-3.562428
O	8.431783	-5.814279	-1.064376
O	3.683661	-3.685528	-3.685528
O	5.812583	-5.814279	-3.685528
O	6.057722	-3.439328	-1.310576
O	10.560705	-3.685528	-1.064376
O	6.057722	-1.310576	-3.439328
O	8.186644	-1.310576	-1.310576
O	8.186644	-3.439328	-3.439328
Cd	9.496244	0.000000	0.000000
Cd	11.870305	-2.374952	-2.374952
Er	8.309213	-1.187476	-3.562428
Er	13.057335	1.187476	-1.187476
Er	15.431396	-1.187476	-1.187476
Er	10.683274	1.187476	-3.562428
O	13.179905	-1.064376	-1.064376
O	8.431783	1.064376	-3.685528
O	10.560705	-1.064376	-3.685528
O	10.805844	1.310576	-1.310576
O	15.308827	1.064376	-1.064376
O	10.805844	3.439328	-3.439328
O	12.934766	3.439328	-1.310576
O	12.934766	1.310576	-3.439328
Cd	0.000000	-4.749904	-4.749904
Cd	2.374061	-7.124855	-7.124855
Er	-1.187030	-5.937379	-8.312331
Er	3.561091	-3.562428	-5.937379
Er	5.935152	-5.937379	-5.937379
Er	1.187030	-3.562428	-8.312331
O	3.683661	-5.814279	-5.814279
O	-1.064461	-3.685528	-8.435431
O	1.064461	-5.814279	-8.435431
O	1.309600	-3.439328	-6.060479
O	5.812583	-3.685528	-5.814279
O	1.309600	-1.310576	-8.189231
O	3.438522	-1.310576	-6.060479
O	3.438522	-3.439328	-8.189231
Cd	4.748122	0.000000	-4.749904
Cd	7.122183	-2.374952	-7.124855
Er	3.561091	-1.187476	-8.312331
Er	8.309213	1.187476	-5.937379
Er	10.683274	-1.187476	-5.937379
Er	5.935152	1.187476	-8.312331
O	8.431783	-1.064376	-5.814279
O	3.683661	1.064376	-8.435431
O	5.812583	-1.064376	-8.435431
O	6.057722	1.310576	-6.060479
O	10.560705	1.064376	-5.814279
O	6.057722	3.439328	-8.189231
O	8.186644	3.439328	-6.060479
O	8.186644	1.310576	-8.189231
