112

Hg	0.000000	0.000000	0.000000
Hg	2.416093	-2.416430	-2.416430
O	3.760239	-1.071537	-1.071537
O	-1.071937	1.071537	-3.761333
O	1.071937	-1.071537	-3.761333
O	1.344146	1.344903	-1.344903
O	5.904124	1.071537	-1.071537
O	1.344146	3.487968	-3.487968
O	3.488031	1.344903	-3.487968
O	3.488031	3.487968	-1.344903
Tb	-1.208042	-1.208215	-3.624645
Tb	1.208042	1.208215	-3.624645
Tb	6.040219	-1.208215	-1.208215
Tb	3.624135	1.208215	-1.208215
Hg	4.832178	4.832867	0.000000
Hg	7.248272	2.416437	-2.416430
O	8.592418	3.761330	-1.071537
O	3.760241	5.904404	-3.761333
O	5.904116	3.761330	-3.761333
O	6.176324	6.177770	-1.344903
O	10.736303	5.904404	-1.071537
O	6.176324	8.320835	-3.487968
O	8.320209	6.177770	-3.487968
O	8.320209	8.320835	-1.344903
Tb	3.624137	3.624652	-3.624645
Tb	6.040220	6.041082	-3.624645
Tb	10.872397	3.624652	-1.208215
Tb	8.456314	6.041082	-1.208215
Hg	-4.832178	0.000000	-4.832867
Hg	-2.416085	-2.416430	-7.249297
O	-1.071939	-1.071537	-5.904404
O	-5.904116	1.071537	-8.594200
O	-3.760241	-1.071537	-8.594200
O	-3.488032	1.344903	-6.177770
O	1.071946	1.071537	-5.904404
O	-3.488032	3.487968	-8.320835
O	-1.344147	1.344903	-8.320835
O	-1.344147	3.487968	-6.177770
Tb	-6.040220	-1.208215	-8.457512
Tb	-3.624137	1.208215	-8.457512
Tb	1.208040	-1.208215	-6.041082
Tb	-1.208043	1.208215	-6.041082
Hg	0.000000	4.832867	-4.832867
Hg	2.416093	2.416437	-7.249297
O	3.760239	3.761330	-5.904404
O	-1.071937	5.904404	-8.594200
O	1.071937	3.761330	-8.594200
O	1.344146	6.177770	-6.177770
O	5.904124	5.904404	-5.904404
O	1.344146	8.320835	-8.320835
O	3.488031	6.177770	-8.320835
O	3.488031	8.320835	-6.177770
Tb	-1.208042	3.624652	-8.457512
Tb	1.208042	6.041082	-8.457512
Tb	6.040219	3.624652	-6.041082
Tb	3.624135	6.041082	-6.041082
Hg	4.832178	-4.832867	0.000000
Hg	7.248272	-7.249297	-2.416430
O	8.592418	-5.904404	-1.071537
O	3.760241	-3.761330	-3.761333
O	5.904116	-5.904404	-3.761333
O	6.176324	-3.487964	-1.344903
O	10.736303	-3.761330	-1.071537
O	6.176324	-1.344899	-3.487968
O	8.320209	-3.487964	-3.487968
O	8.320209	-1.344899	-1.344903
Tb	3.624137	-6.041082	-3.624645
Tb	6.040220	-3.624652	-3.624645
Tb	10.872397	-6.041082	-1.208215
Tb	8.456314	-3.624652	-1.208215
Hg	9.664357	0.000000	0.000000
Hg	12.080450	-2.416430	-2.416430
O	13.424596	-1.071537	-1.071537
O	8.592419	1.071537	-3.761333
O	10.736294	-1.071537	-3.761333
O	11.008503	1.344903	-1.344903
O	15.568481	1.071537	-1.071537
O	11.008503	3.487968	-3.487968
O	13.152388	1.344903	-3.487968
O	13.152388	3.487968	-1.344903
Tb	8.456315	-1.208215	-3.624645
Tb	10.872398	1.208215	-3.624645
Tb	15.704575	-1.208215	-1.208215
Tb	13.288492	1.208215	-1.208215
Hg	0.000000	-4.832867	-4.832867
Hg	2.416093	-7.249297	-7.249297
O	3.760239	-5.904404	-5.904404
O	-1.071937	-3.761330	-8.594200
O	1.071937	-5.904404	-8.594200
O	1.344146	-3.487964	-6.177770
O	5.904124	-3.761330	-5.904404
O	1.344146	-1.344899	-8.320835
O	3.488031	-3.487964	-8.320835
O	3.488031	-1.344899	-6.177770
Tb	-1.208042	-6.041082	-8.457512
Tb	1.208042	-3.624652	-8.457512
Tb	6.040219	-6.041082	-6.041082
Tb	3.624135	-3.624652	-6.041082
Hg	4.832178	0.000000	-4.832867
Hg	7.248272	-2.416430	-7.249297
O	8.592418	-1.071537	-5.904404
O	3.760241	1.071537	-8.594200
O	5.904116	-1.071537	-8.594200
O	6.176324	1.344903	-6.177770
O	10.736303	1.071537	-5.904404
O	6.176324	3.487968	-8.320835
O	8.320209	1.344903	-8.320835
O	8.320209	3.487968	-6.177770
Tb	3.624137	-1.208215	-8.457512
Tb	6.040220	1.208215	-8.457512
Tb	10.872397	-1.208215	-6.041082
Tb	8.456314	1.208215	-6.041082
