40

Ag	0.000000	0.000000	0.000000
La	2.235882	2.235882	2.235882
O	2.235882	2.235882	0.000000
O	2.235882	0.000000	2.235882
O	0.000000	2.235882	2.235882
Ag	0.000000	0.000000	4.471767
La	2.235882	2.235882	6.707649
O	2.235882	2.235882	4.471767
O	2.235882	0.000000	6.707649
O	0.000000	2.235882	6.707649
Ag	0.000000	4.471767	0.000000
La	2.235882	6.707649	2.235882
O	2.235882	6.707649	0.000000
O	2.235882	4.471767	2.235882
O	0.000000	6.707649	2.235882
Ag	0.000000	4.471767	4.471767
La	2.235882	6.707649	6.707649
O	2.235882	6.707649	4.471767
O	2.235882	4.471767	6.707649
O	0.000000	6.707649	6.707649
Ag	4.471767	0.000000	0.000000
La	6.707649	2.235882	2.235882
O	6.707649	2.235882	0.000000
O	6.707649	0.000000	2.235882
O	4.471767	2.235882	2.235882
Ag	4.471767	0.000000	4.471767
La	6.707649	2.235882	6.707649
O	6.707649	2.235882	4.471767
O	6.707649	0.000000	6.707649
O	4.471767	2.235882	6.707649
Ag	4.471767	4.471767	0.000000
La	6.707649	6.707649	2.235882
O	6.707649	6.707649	0.000000
O	6.707649	4.471767	2.235882
O	4.471767	6.707649	2.235882
Ag	4.471767	4.471767	4.471767
La	6.707649	6.707649	6.707649
O	6.707649	6.707649	4.471767
O	6.707649	4.471767	6.707649
O	4.471767	6.707649	6.707649
