40

O	1.992030	1.992030	0.000000
O	0.000000	1.992030	1.992030
O	1.992030	0.000000	1.992030
Pt	1.992030	1.992030	1.992030
Zr_sv	0.000000	0.000000	0.000000
O	1.992030	1.992030	3.984064
O	0.000000	1.992030	5.976094
O	1.992030	0.000000	5.976094
Pt	1.992030	1.992030	5.976094
Zr_sv	0.000000	0.000000	3.984064
O	1.992030	5.976094	0.000000
O	0.000000	5.976094	1.992030
O	1.992030	3.984064	1.992030
Pt	1.992030	5.976094	1.992030
Zr_sv	0.000000	3.984064	0.000000
O	1.992030	5.976094	3.984064
O	0.000000	5.976094	5.976094
O	1.992030	3.984064	5.976094
Pt	1.992030	5.976094	5.976094
Zr_sv	0.000000	3.984064	3.984064
O	5.976094	1.992030	0.000000
O	3.984064	1.992030	1.992030
O	5.976094	0.000000	1.992030
Pt	5.976094	1.992030	1.992030
Zr_sv	3.984064	0.000000	0.000000
O	5.976094	1.992030	3.984064
O	3.984064	1.992030	5.976094
O	5.976094	0.000000	5.976094
Pt	5.976094	1.992030	5.976094
Zr_sv	3.984064	0.000000	3.984064
O	5.976094	5.976094	0.000000
O	3.984064	5.976094	1.992030
O	5.976094	3.984064	1.992030
Pt	5.976094	5.976094	1.992030
Zr_sv	3.984064	3.984064	0.000000
O	5.976094	5.976094	3.984064
O	3.984064	5.976094	5.976094
O	5.976094	3.984064	5.976094
Pt	5.976094	5.976094	5.976094
Zr_sv	3.984064	3.984064	3.984064
