40

O	2.130980	2.130980	0.000000
O	0.000000	2.130980	2.130980
O	2.130980	0.000000	2.130980
Pr_3	0.000000	0.000000	0.000000
Te	2.130980	2.130980	2.130980
O	2.130980	2.130980	4.261961
O	0.000000	2.130980	6.392941
O	2.130980	0.000000	6.392941
Pr_3	0.000000	0.000000	4.261961
Te	2.130980	2.130980	6.392941
O	2.130980	6.392941	0.000000
O	0.000000	6.392941	2.130980
O	2.130980	4.261961	2.130980
Pr_3	0.000000	4.261961	0.000000
Te	2.130980	6.392941	2.130980
O	2.130980	6.392941	4.261961
O	0.000000	6.392941	6.392941
O	2.130980	4.261961	6.392941
Pr_3	0.000000	4.261961	4.261961
Te	2.130980	6.392941	6.392941
O	6.392941	2.130980	0.000000
O	4.261961	2.130980	2.130980
O	6.392941	0.000000	2.130980
Pr_3	4.261961	0.000000	0.000000
Te	6.392941	2.130980	2.130980
O	6.392941	2.130980	4.261961
O	4.261961	2.130980	6.392941
O	6.392941	0.000000	6.392941
Pr_3	4.261961	0.000000	4.261961
Te	6.392941	2.130980	6.392941
O	6.392941	6.392941	0.000000
O	4.261961	6.392941	2.130980
O	6.392941	4.261961	2.130980
Pr_3	4.261961	4.261961	0.000000
Te	6.392941	6.392941	2.130980
O	6.392941	6.392941	4.261961
O	4.261961	6.392941	6.392941
O	6.392941	4.261961	6.392941
Pr_3	4.261961	4.261961	4.261961
Te	6.392941	6.392941	6.392941
