96

N	0.000000	0.000000	0.000000
N	2.830975	2.830975	0.000000
N	0.000000	2.830975	2.830975
Na	1.448991	1.381984	1.448991
Na	4.212959	1.381984	1.448991
Na	1.448991	4.279966	1.448991
Na	4.212959	4.279966	1.448991
Na	1.448991	1.381984	4.212959
Na	4.212959	1.381984	4.212959
Na	1.448991	4.279966	4.212959
Na	4.212959	4.279966	4.212959
O	2.830975	0.000000	2.830975
N	0.000000	0.000000	5.661950
N	2.830975	2.830975	5.661950
N	0.000000	2.830975	8.492925
Na	1.448991	1.381984	7.110941
Na	4.212959	1.381984	7.110941
Na	1.448991	4.279966	7.110941
Na	4.212959	4.279966	7.110941
Na	1.448991	1.381984	9.874909
Na	4.212959	1.381984	9.874909
Na	1.448991	4.279966	9.874909
Na	4.212959	4.279966	9.874909
O	2.830975	0.000000	8.492925
N	0.000000	5.661950	0.000000
N	2.830975	8.492925	0.000000
N	0.000000	8.492925	2.830975
Na	1.448991	7.043934	1.448991
Na	4.212959	7.043934	1.448991
Na	1.448991	9.941916	1.448991
Na	4.212959	9.941916	1.448991
Na	1.448991	7.043934	4.212959
Na	4.212959	7.043934	4.212959
Na	1.448991	9.941916	4.212959
Na	4.212959	9.941916	4.212959
O	2.830975	5.661950	2.830975
N	0.000000	5.661950	5.661950
N	2.830975	8.492925	5.661950
N	0.000000	8.492925	8.492925
Na	1.448991	7.043934	7.110941
Na	4.212959	7.043934	7.110941
Na	1.448991	9.941916	7.110941
Na	4.212959	9.941916	7.110941
Na	1.448991	7.043934	9.874909
Na	4.212959	7.043934	9.874909
Na	1.448991	9.941916	9.874909
Na	4.212959	9.941916	9.874909
O	2.830975	5.661950	8.492925
N	5.661950	0.000000	0.000000
N	8.492925	2.830975	0.000000
N	5.661950	2.830975	2.830975
Na	7.110941	1.381984	1.448991
Na	9.874909	1.381984	1.448991
Na	7.110941	4.279966	1.448991
Na	9.874909	4.279966	1.448991
Na	7.110941	1.381984	4.212959
Na	9.874909	1.381984	4.212959
Na	7.110941	4.279966	4.212959
Na	9.874909	4.279966	4.212959
O	8.492925	0.000000	2.830975
N	5.661950	0.000000	5.661950
N	8.492925	2.830975	5.661950
N	5.661950	2.830975	8.492925
Na	7.110941	1.381984	7.110941
Na	9.874909	1.381984	7.110941
Na	7.110941	4.279966	7.110941
Na	9.874909	4.279966	7.110941
Na	7.110941	1.381984	9.874909
Na	9.874909	1.381984	9.874909
Na	7.110941	4.279966	9.874909
Na	9.874909	4.279966	9.874909
O	8.492925	0.000000	8.492925
N	5.661950	5.661950	0.000000
N	8.492925	8.492925	0.000000
N	5.661950	8.492925	2.830975
Na	7.110941	7.043934	1.448991
Na	9.874909	7.043934	1.448991
Na	7.110941	9.941916	1.448991
Na	9.874909	9.941916	1.448991
Na	7.110941	7.043934	4.212959
Na	9.874909	7.043934	4.212959
Na	7.110941	9.941916	4.212959
Na	9.874909	9.941916	4.212959
O	8.492925	5.661950	2.830975
N	5.661950	5.661950	5.661950
N	8.492925	8.492925	5.661950
N	5.661950	8.492925	8.492925
Na	7.110941	7.043934	7.110941
Na	9.874909	7.043934	7.110941
Na	7.110941	9.941916	7.110941
Na	9.874909	9.941916	7.110941
Na	7.110941	7.043934	9.874909
Na	9.874909	7.043934	9.874909
Na	7.110941	9.941916	9.874909
Na	9.874909	9.941916	9.874909
O	8.492925	5.661950	8.492925
