112

Zn	0.867663	0.624043	4.535583
Zn	0.881035	4.317285	-1.521229
Fe	2.616794	-0.000106	1.516193
Fe	0.874378	2.470661	1.507190
Fe	3.491176	2.470528	3.023365
Fe	-1.746204	2.476384	3.014088
O	-2.470102	3.658963	1.498536
O	-0.071750	3.659291	2.888204
O	-0.066696	3.649329	0.115215
O	2.622150	3.549045	1.506794
O	1.815383	1.291957	2.899127
O	1.820478	1.282043	0.126141
O	-0.873408	1.392257	1.507544
O	4.218784	1.282306	1.515802
Zn	0.860135	0.635319	10.581820
Zn	0.873507	4.328561	4.525007
Fe	2.609266	0.011170	7.562429
Fe	0.866850	2.481938	7.553427
Fe	3.483648	2.481805	9.069602
Fe	-1.753732	2.487661	9.060325
O	-2.477631	3.670240	7.544773
O	-0.079278	3.670568	8.934441
O	-0.074224	3.660606	6.161452
O	2.614622	3.560322	7.553031
O	1.807855	1.303234	8.945363
O	1.812950	1.293320	6.172378
O	-0.880936	1.403534	7.553781
O	4.211256	1.293583	7.562038
Zn	-2.617250	5.565553	4.517538
Zn	-2.603877	9.258795	-1.539274
Fe	-0.868119	4.941404	1.498148
Fe	-2.610535	7.412171	1.489145
Fe	0.006263	7.412038	3.005320
Fe	-5.231117	7.417894	2.996043
O	-5.955015	8.600473	1.480492
O	-3.556663	8.600801	2.870159
O	-3.551609	8.590839	0.097171
O	-0.862763	8.490555	1.488749
O	-1.669529	6.233468	2.881082
O	-1.664435	6.223553	0.108097
O	-4.358320	6.333767	1.489500
O	0.733871	6.223816	1.497757
Zn	-2.624778	5.576829	10.563775
Zn	-2.611406	9.270071	4.506963
Fe	-0.875647	4.952681	7.544384
Fe	-2.618063	7.423448	7.535382
Fe	-0.001265	7.423315	9.051557
Fe	-5.238645	7.429171	9.042280
O	-5.962543	8.611750	7.526728
O	-3.564191	8.612078	8.916396
O	-3.559137	8.602116	6.143407
O	-0.870291	8.501832	7.534986
O	-1.677058	6.244744	8.927319
O	-1.671963	6.234830	6.154333
O	-4.365849	6.345044	7.535736
O	0.726343	6.235093	7.543994
Zn	6.108817	0.612556	1.521735
Zn	6.122189	4.305798	-4.535077
Fe	7.857948	-0.011593	-1.497655
Fe	6.115531	2.459174	-1.506657
Fe	8.732330	2.459042	0.009517
Fe	3.494950	2.464898	0.000241
O	2.771051	3.647477	-1.515311
O	5.169404	3.647805	-0.125644
O	5.174458	3.637843	-2.898632
O	7.863304	3.537559	-1.507053
O	7.056537	1.280471	-0.114721
O	7.061632	1.270556	-2.887706
O	4.367746	1.380770	-1.506303
O	9.459938	1.270819	-1.498046
Zn	6.101289	0.623833	7.567972
Zn	6.114661	4.317075	1.511160
Fe	7.850420	-0.000316	4.548582
Fe	6.108003	2.470451	4.539579
Fe	8.724802	2.470318	6.055754
Fe	3.487422	2.476174	6.046477
O	2.763523	3.658754	4.530925
O	5.161876	3.659081	5.920593
O	5.166930	3.649120	3.147604
O	7.855775	3.548836	4.539183
O	7.049009	1.291748	5.931516
O	7.054103	1.281833	3.158530
O	4.360218	1.392047	4.539933
O	9.452409	1.282096	4.548191
Zn	2.623904	5.554066	1.503691
Zn	2.637276	9.247308	-4.553122
Fe	4.373035	4.929917	-1.515700
Fe	2.630619	7.400684	-1.524702
Fe	5.247417	7.400552	-0.008528
Fe	0.010037	7.406408	-0.017804
O	-0.713862	8.588987	-1.533356
O	1.684491	8.589315	-0.143689
O	1.689545	8.579353	-2.916677
O	4.378391	8.479069	-1.525098
O	3.571624	6.221981	-0.132766
O	3.576719	6.212067	-2.905751
O	0.882833	6.322280	-1.524348
O	5.975025	6.212329	-1.516091
Zn	2.616376	5.565343	7.549927
Zn	2.629748	9.258585	1.493115
Fe	4.365507	4.941194	4.530537
Fe	2.623090	7.411961	4.521534
Fe	5.239889	7.411828	6.037709
Fe	0.002509	7.417684	6.028432
O	-0.721390	8.600264	4.512880
O	1.676963	8.600591	5.902548
O	1.682017	8.590630	3.129559
O	4.370862	8.490346	4.521138
O	3.564096	6.233258	5.913471
O	3.569190	6.223343	3.140485
O	0.875305	6.333557	4.521888
O	5.967497	6.223606	4.530146
