40

Dy	2.117615	2.117615	2.117615
O	2.117615	2.117615	0.000000
O	0.000000	2.117615	2.117615
O	2.117615	0.000000	2.117615
Ti	0.000000	0.000000	0.000000
Dy	2.117615	2.117615	6.352861
O	2.117615	2.117615	4.235246
O	0.000000	2.117615	6.352861
O	2.117615	0.000000	6.352861
Ti	0.000000	0.000000	4.235246
Dy	2.117615	6.352861	2.117615
O	2.117615	6.352861	0.000000
O	0.000000	6.352861	2.117615
O	2.117615	4.235246	2.117615
Ti	0.000000	4.235246	0.000000
Dy	2.117615	6.352861	6.352861
O	2.117615	6.352861	4.235246
O	0.000000	6.352861	6.352861
O	2.117615	4.235246	6.352861
Ti	0.000000	4.235246	4.235246
Dy	6.352861	2.117615	2.117615
O	6.352861	2.117615	0.000000
O	4.235246	2.117615	2.117615
O	6.352861	0.000000	2.117615
Ti	4.235246	0.000000	0.000000
Dy	6.352861	2.117615	6.352861
O	6.352861	2.117615	4.235246
O	4.235246	2.117615	6.352861
O	6.352861	0.000000	6.352861
Ti	4.235246	0.000000	4.235246
Dy	6.352861	6.352861	2.117615
O	6.352861	6.352861	0.000000
O	4.235246	6.352861	2.117615
O	6.352861	4.235246	2.117615
Ti	4.235246	4.235246	0.000000
Dy	6.352861	6.352861	6.352861
O	6.352861	6.352861	4.235246
O	4.235246	6.352861	6.352861
O	6.352861	4.235246	6.352861
Ti	4.235246	4.235246	4.235246
