40

Nb	2.020100	2.020100	2.020100
O	2.020100	2.020100	0.000000
O	0.000000	2.020100	2.020100
O	2.020100	0.000000	2.020100
Pm	0.000000	0.000000	0.000000
Nb	2.020100	2.020100	6.060284
O	2.020100	2.020100	4.040184
O	0.000000	2.020100	6.060284
O	2.020100	0.000000	6.060284
Pm	0.000000	0.000000	4.040184
Nb	2.020100	6.060284	2.020100
O	2.020100	6.060284	0.000000
O	0.000000	6.060284	2.020100
O	2.020100	4.040184	2.020100
Pm	0.000000	4.040184	0.000000
Nb	2.020100	6.060284	6.060284
O	2.020100	6.060284	4.040184
O	0.000000	6.060284	6.060284
O	2.020100	4.040184	6.060284
Pm	0.000000	4.040184	4.040184
Nb	6.060284	2.020100	2.020100
O	6.060284	2.020100	0.000000
O	4.040184	2.020100	2.020100
O	6.060284	0.000000	2.020100
Pm	4.040184	0.000000	0.000000
Nb	6.060284	2.020100	6.060284
O	6.060284	2.020100	4.040184
O	4.040184	2.020100	6.060284
O	6.060284	0.000000	6.060284
Pm	4.040184	0.000000	4.040184
Nb	6.060284	6.060284	2.020100
O	6.060284	6.060284	0.000000
O	4.040184	6.060284	2.020100
O	6.060284	4.040184	2.020100
Pm	4.040184	4.040184	0.000000
Nb	6.060284	6.060284	6.060284
O	6.060284	6.060284	4.040184
O	4.040184	6.060284	6.060284
O	6.060284	4.040184	6.060284
Pm	4.040184	4.040184	4.040184
