264

Bi	5.163093	-1.825437	-3.272225
Bi	3.205437	1.758649	0.132219
Bi	6.856311	1.758649	-0.132219
Bi	1.758649	-0.132219	-3.205437
Bi	3.272225	5.163093	1.825437
Bi	-0.132219	3.205437	-1.758649
Bi	4.898654	1.825437	-3.272225
Bi	3.272225	4.898654	-1.825437
Bi	1.758649	0.132219	-6.856311
Bi	1.825437	3.272225	-4.898654
Bi	-1.825437	3.272225	-5.163093
Bi	0.132219	6.856311	-1.758649
O	1.984359	1.984359	1.984359
O	4.073123	4.073123	4.073123
O	1.984359	-1.984359	-1.984359
O	4.073123	-4.073123	-4.073123
O	6.368160	-0.141091	-2.412581
O	3.693587	0.141091	-2.412581
O	4.889783	2.618293	1.337286
O	0.957751	0.957751	-0.957751
O	2.618293	-1.337286	-4.889783
O	2.412581	3.693587	-0.141091
O	-1.984359	1.984359	-1.984359
O	5.171964	2.618293	-1.337286
O	0.141091	2.412581	-3.693587
O	3.046515	3.046515	-3.046515
O	2.412581	6.368160	0.141091
O	2.618293	1.337286	-5.171964
O	-4.073123	4.073123	-4.073123
O	-0.141091	2.412581	-6.368160
O	-1.337286	4.889783	-2.618293
O	1.337286	5.171964	-2.618293
Si	0.000000	0.000000	0.000000
Bi	0.132219	3.205437	-8.303099
Bi	-1.825437	6.789523	-4.898654
Bi	1.825437	6.789523	-5.163093
Bi	-3.272225	4.898654	-8.236311
Bi	-1.758649	10.193967	-3.205437
Bi	-5.163093	8.236311	-6.789523
Bi	-0.132219	6.856311	-8.303099
Bi	-1.758649	9.929528	-6.856311
Bi	-3.272225	5.163093	-11.887185
Bi	-3.205437	8.303099	-9.929528
Bi	-6.856311	8.303099	-10.193967
Bi	-4.898654	11.887185	-6.789523
O	-3.046515	7.015233	-3.046515
O	-0.957751	9.103997	-0.957751
O	-3.046515	3.046515	-7.015233
O	-0.957751	0.957751	-9.103997
O	1.337286	4.889783	-7.443455
O	-1.337286	5.171964	-7.443455
O	-0.141091	7.649167	-3.693587
O	-4.073123	5.988624	-5.988624
O	-2.412581	3.693587	-9.920657
O	-2.618293	8.724461	-5.171964
O	-7.015233	7.015233	-7.015233
O	0.141091	7.649167	-6.368160
O	-4.889783	7.443455	-8.724461
O	-1.984359	8.077389	-8.077389
O	-2.618293	11.399034	-4.889783
O	-2.412581	6.368160	-10.202838
O	-9.103997	9.103997	-9.103997
O	-5.171964	7.443455	-11.399034
O	-6.368160	9.920657	-7.649167
O	-3.693587	10.202838	-7.649167
Si	-5.030874	5.030874	-5.030874
Bi	10.193967	-6.856311	-8.303099
Bi	8.236311	-3.272225	-4.898654
Bi	11.887185	-3.272225	-5.163093
Bi	6.789523	-5.163093	-8.236311
Bi	8.303099	0.132219	-3.205437
Bi	4.898654	-1.825437	-6.789523
Bi	9.929528	-3.205437	-8.303099
Bi	8.303099	-0.132219	-6.856311
Bi	6.789523	-4.898654	-11.887185
Bi	6.856311	-1.758649	-9.929528
Bi	3.205437	-1.758649	-10.193967
Bi	5.163093	1.825437	-6.789523
O	7.015233	-3.046515	-3.046515
O	9.103997	-0.957751	-0.957751
O	7.015233	-7.015233	-7.015233
O	9.103997	-9.103997	-9.103997
O	11.399034	-5.171964	-7.443455
O	8.724461	-4.889783	-7.443455
O	9.920657	-2.412581	-3.693587
O	5.988624	-4.073123	-5.988624
O	7.649167	-6.368160	-9.920657
O	7.443455	-1.337286	-5.171964
O	3.046515	-3.046515	-7.015233
O	10.202838	-2.412581	-6.368160
O	5.171964	-2.618293	-8.724461
O	8.077389	-1.984359	-8.077389
O	7.443455	1.337286	-4.889783
O	7.649167	-3.693587	-10.202838
O	0.957751	-0.957751	-9.103997
O	4.889783	-2.618293	-11.399034
O	3.693587	-0.141091	-7.649167
O	6.368160	0.141091	-7.649167
Si	5.030874	-5.030874	-5.030874
Bi	5.163093	-1.825437	-13.333972
Bi	3.205437	1.758649	-9.929528
Bi	6.856311	1.758649	-10.193967
Bi	1.758649	-0.132219	-13.267184
Bi	3.272225	5.163093	-8.236311
Bi	-0.132219	3.205437	-11.820396
Bi	4.898654	1.825437	-13.333972
Bi	3.272225	4.898654	-11.887185
Bi	1.758649	0.132219	-16.918058
Bi	1.825437	3.272225	-14.960402
Bi	-1.825437	3.272225	-15.224841
Bi	0.132219	6.856311	-11.820396
O	1.984359	1.984359	-8.077389
O	4.073123	4.073123	-5.988624
O	1.984359	-1.984359	-12.046107
O	4.073123	-4.073123	-14.134871
O	6.368160	-0.141091	-12.474328
O	3.693587	0.141091	-12.474328
O	4.889783	2.618293	-8.724461
O	0.957751	0.957751	-11.019498
O	2.618293	-1.337286	-14.951531
O	2.412581	3.693587	-10.202838
O	-1.984359	1.984359	-12.046107
O	5.171964	2.618293	-11.399034
O	0.141091	2.412581	-13.755335
O	3.046515	3.046515	-13.108262
O	2.412581	6.368160	-9.920657
O	2.618293	1.337286	-15.233712
O	-4.073123	4.073123	-14.134871
O	-0.141091	2.412581	-16.429908
O	-1.337286	4.889783	-12.680040
O	1.337286	5.171964	-12.680040
Si	0.000000	0.000000	-10.061748
Bi	10.193967	3.205437	1.758649
Bi	8.236311	6.789523	5.163093
Bi	11.887185	6.789523	4.898654
Bi	6.789523	4.898654	1.825437
Bi	8.303099	10.193967	6.856311
Bi	4.898654	8.236311	3.272225
Bi	9.929528	6.856311	1.758649
Bi	8.303099	9.929528	3.205437
Bi	6.789523	5.163093	-1.825437
Bi	6.856311	8.303099	0.132219
Bi	3.205437	8.303099	-0.132219
Bi	5.163093	11.887185	3.272225
O	7.015233	7.015233	7.015233
O	9.103997	9.103997	9.103997
O	7.015233	3.046515	3.046515
O	9.103997	0.957751	0.957751
O	11.399034	4.889783	2.618293
O	8.724461	5.171964	2.618293
O	9.920657	7.649167	6.368160
O	5.988624	5.988624	4.073123
O	7.649167	3.693587	0.141091
O	7.443455	8.724461	4.889783
O	3.046515	7.015233	3.046515
O	10.202838	7.649167	3.693587
O	5.171964	7.443455	1.337286
O	8.077389	8.077389	1.984359
O	7.443455	11.399034	5.171964
O	7.649167	6.368160	-0.141091
O	0.957751	9.103997	0.957751
O	4.889783	7.443455	-1.337286
O	3.693587	9.920657	2.412581
O	6.368160	10.202838	2.412581
Si	5.030874	5.030874	5.030874
Bi	5.163093	8.236311	-3.272225
Bi	3.205437	11.820396	0.132219
Bi	6.856311	11.820396	-0.132219
Bi	1.758649	9.929528	-3.205437
Bi	3.272225	15.224841	1.825437
Bi	-0.132219	13.267184	-1.758649
Bi	4.898654	11.887185	-3.272225
Bi	3.272225	14.960402	-1.825437
Bi	1.758649	10.193967	-6.856311
Bi	1.825437	13.333972	-4.898654
Bi	-1.825437	13.333972	-5.163093
Bi	0.132219	16.918058	-1.758649
O	1.984359	12.046107	1.984359
O	4.073123	14.134871	4.073123
O	1.984359	8.077389	-1.984359
O	4.073123	5.988624	-4.073123
O	6.368160	9.920657	-2.412581
O	3.693587	10.202838	-2.412581
O	4.889783	12.680040	1.337286
O	0.957751	11.019498	-0.957751
O	2.618293	8.724461	-4.889783
O	2.412581	13.755335	-0.141091
O	-1.984359	12.046107	-1.984359
O	5.171964	12.680040	-1.337286
O	0.141091	12.474328	-3.693587
O	3.046515	13.108262	-3.046515
O	2.412581	16.429908	0.141091
O	2.618293	11.399034	-5.171964
O	-4.073123	14.134871	-4.073123
O	-0.141091	12.474328	-6.368160
O	-1.337286	14.951531	-2.618293
O	1.337286	15.233712	-2.618293
Si	0.000000	10.061748	0.000000
Bi	15.224841	-1.825437	-3.272225
Bi	13.267184	1.758649	0.132219
Bi	16.918058	1.758649	-0.132219
Bi	11.820396	-0.132219	-3.205437
Bi	13.333972	5.163093	1.825437
Bi	9.929528	3.205437	-1.758649
Bi	14.960402	1.825437	-3.272225
Bi	13.333972	4.898654	-1.825437
Bi	11.820396	0.132219	-6.856311
Bi	11.887185	3.272225	-4.898654
Bi	8.236311	3.272225	-5.163093
Bi	10.193967	6.856311	-1.758649
O	12.046107	1.984359	1.984359
O	14.134871	4.073123	4.073123
O	12.046107	-1.984359	-1.984359
O	14.134871	-4.073123	-4.073123
O	16.429908	-0.141091	-2.412581
O	13.755335	0.141091	-2.412581
O	14.951531	2.618293	1.337286
O	11.019498	0.957751	-0.957751
O	12.680040	-1.337286	-4.889783
O	12.474328	3.693587	-0.141091
O	8.077389	1.984359	-1.984359
O	15.233712	2.618293	-1.337286
O	10.202838	2.412581	-3.693587
O	13.108262	3.046515	-3.046515
O	12.474328	6.368160	0.141091
O	12.680040	1.337286	-5.171964
O	5.988624	4.073123	-4.073123
O	9.920657	2.412581	-6.368160
O	8.724461	4.889783	-2.618293
O	11.399034	5.171964	-2.618293
Si	10.061748	0.000000	0.000000
Bi	10.193967	3.205437	-8.303099
Bi	8.236311	6.789523	-4.898654
Bi	11.887185	6.789523	-5.163093
Bi	6.789523	4.898654	-8.236311
Bi	8.303099	10.193967	-3.205437
Bi	4.898654	8.236311	-6.789523
Bi	9.929528	6.856311	-8.303099
Bi	8.303099	9.929528	-6.856311
Bi	6.789523	5.163093	-11.887185
Bi	6.856311	8.303099	-9.929528
Bi	3.205437	8.303099	-10.193967
Bi	5.163093	11.887185	-6.789523
O	7.015233	7.015233	-3.046515
O	9.103997	9.103997	-0.957751
O	7.015233	3.046515	-7.015233
O	9.103997	0.957751	-9.103997
O	11.399034	4.889783	-7.443455
O	8.724461	5.171964	-7.443455
O	9.920657	7.649167	-3.693587
O	5.988624	5.988624	-5.988624
O	7.649167	3.693587	-9.920657
O	7.443455	8.724461	-5.171964
O	3.046515	7.015233	-7.015233
O	10.202838	7.649167	-6.368160
O	5.171964	7.443455	-8.724461
O	8.077389	8.077389	-8.077389
O	7.443455	11.399034	-4.889783
O	7.649167	6.368160	-10.202838
O	0.957751	9.103997	-9.103997
O	4.889783	7.443455	-11.399034
O	3.693587	9.920657	-7.649167
O	6.368160	10.202838	-7.649167
Si	5.030874	5.030874	-5.030874
