112

Ba	0.000000	0.000000	0.000000
Ba	2.392837	-2.393717	-2.393717
Hf	-1.196418	-1.196864	-3.590581
Hf	5.982092	-1.196864	-1.196864
Hf	1.196418	1.196864	-3.590581
Hf	3.589255	1.196864	-1.196864
O	3.819213	-0.966191	-0.966191
O	-0.966461	0.966191	-3.821253
O	0.966461	-0.966191	-3.821253
O	1.426376	1.427526	-1.427526
O	5.752134	0.966191	-0.966191
O	1.426376	3.359918	-3.359918
O	3.359297	3.359918	-1.427526
O	3.359297	1.427526	-3.359918
Ba	4.785673	4.787444	0.000000
Ba	7.178510	2.393726	-2.393717
Hf	3.589255	3.590580	-3.590581
Hf	10.767765	3.590580	-1.196864
Hf	5.982092	5.984307	-3.590581
Hf	8.374928	5.984307	-1.196864
O	8.604886	3.821252	-0.966191
O	3.819213	5.753635	-3.821253
O	5.752134	3.821252	-3.821253
O	6.212049	6.214970	-1.427526
O	10.537807	5.753635	-0.966191
O	6.212049	8.147362	-3.359918
O	8.144971	8.147362	-1.427526
O	8.144970	6.214970	-3.359918
Ba	-4.785673	0.000000	-4.787444
Ba	-2.392837	-2.393717	-7.181161
Hf	-5.982092	-1.196864	-8.378024
Hf	1.196419	-1.196864	-5.984307
Hf	-3.589255	1.196864	-8.378024
Hf	-1.196418	1.196864	-5.984307
O	-0.966460	-0.966191	-5.753635
O	-5.752134	0.966191	-8.608697
O	-3.819213	-0.966191	-8.608697
O	-3.359297	1.427526	-6.214970
O	0.966461	0.966191	-5.753635
O	-3.359297	3.359918	-8.147362
O	-1.426376	3.359918	-6.214970
O	-1.426376	1.427526	-8.147362
Ba	0.000000	4.787444	-4.787444
Ba	2.392837	2.393726	-7.181161
Hf	-1.196418	3.590580	-8.378024
Hf	5.982092	3.590580	-5.984307
Hf	1.196418	5.984307	-8.378024
Hf	3.589255	5.984307	-5.984307
O	3.819213	3.821252	-5.753635
O	-0.966461	5.753635	-8.608697
O	0.966461	3.821252	-8.608697
O	1.426376	6.214970	-6.214970
O	5.752134	5.753635	-5.753635
O	1.426376	8.147362	-8.147362
O	3.359297	8.147362	-6.214970
O	3.359297	6.214970	-8.147362
Ba	4.785673	-4.787444	0.000000
Ba	7.178510	-7.181161	-2.393717
Hf	3.589255	-5.984307	-3.590581
Hf	10.767765	-5.984307	-1.196864
Hf	5.982092	-3.590580	-3.590581
Hf	8.374928	-3.590580	-1.196864
O	8.604886	-5.753635	-0.966191
O	3.819213	-3.821252	-3.821253
O	5.752134	-5.753635	-3.821253
O	6.212049	-3.359918	-1.427526
O	10.537807	-3.821252	-0.966191
O	6.212049	-1.427525	-3.359918
O	8.144971	-1.427525	-1.427526
O	8.144970	-3.359918	-3.359918
Ba	9.571346	0.000000	0.000000
Ba	11.964183	-2.393717	-2.393717
Hf	8.374928	-1.196864	-3.590581
Hf	15.553438	-1.196864	-1.196864
Hf	10.767765	1.196864	-3.590581
Hf	13.160602	1.196864	-1.196864
O	13.390559	-0.966191	-0.966191
O	8.604886	0.966191	-3.821253
O	10.537807	-0.966191	-3.821253
O	10.997723	1.427526	-1.427526
O	15.323480	0.966191	-0.966191
O	10.997723	3.359918	-3.359918
O	12.930644	3.359918	-1.427526
O	12.930644	1.427526	-3.359918
Ba	0.000000	-4.787444	-4.787444
Ba	2.392837	-7.181161	-7.181161
Hf	-1.196418	-5.984307	-8.378024
Hf	5.982092	-5.984307	-5.984307
Hf	1.196418	-3.590580	-8.378024
Hf	3.589255	-3.590580	-5.984307
O	3.819213	-5.753635	-5.753635
O	-0.966461	-3.821252	-8.608697
O	0.966461	-5.753635	-8.608697
O	1.426376	-3.359918	-6.214970
O	5.752134	-3.821252	-5.753635
O	1.426376	-1.427525	-8.147362
O	3.359297	-1.427525	-6.214970
O	3.359297	-3.359918	-8.147362
Ba	4.785673	0.000000	-4.787444
Ba	7.178510	-2.393717	-7.181161
Hf	3.589255	-1.196864	-8.378024
Hf	10.767765	-1.196864	-5.984307
Hf	5.982092	1.196864	-8.378024
Hf	8.374928	1.196864	-5.984307
O	8.604886	-0.966191	-5.753635
O	3.819213	0.966191	-8.608697
O	5.752134	-0.966191	-8.608697
O	6.212049	1.427526	-6.214970
O	10.537807	0.966191	-5.753635
O	6.212049	3.359918	-8.147362
O	8.144971	3.359918	-6.214970
O	8.144970	1.427526	-8.147362
