112

O	1.251641	1.253017	-1.253017
O	-1.301559	1.300605	-3.806639
O	3.804850	-1.300605	-1.300605
O	1.301559	-1.300605	-3.806639
O	1.251641	3.854228	-3.854228
O	3.854758	3.854228	-1.253017
O	3.854758	1.253017	-3.854228
O	6.407958	1.300605	-1.300605
Pa	0.000000	0.000000	0.000000
Pa	2.553209	-2.553622	-2.553622
Pb	-1.276605	-1.276811	-3.830424
Pb	6.382994	-1.276811	-1.276811
Pb	3.829794	1.276811	-1.276811
Pb	1.276605	1.276811	-3.830424
O	6.358038	6.360252	-1.253017
O	3.804838	6.407840	-3.806639
O	8.911247	3.806629	-1.300605
O	6.407956	3.806630	-3.806639
O	6.358038	8.961462	-3.854228
O	8.961156	8.961462	-1.253017
O	8.961156	6.360252	-3.854228
O	11.514355	6.407840	-1.300605
Pa	5.106397	5.107235	0.000000
Pa	7.659607	2.553612	-2.553622
Pb	3.829793	3.830424	-3.830424
Pb	11.489391	3.830424	-1.276811
Pb	8.936191	6.384046	-1.276811
Pb	6.383002	6.384046	-3.830424
O	-3.854757	1.253017	-6.360252
O	-6.407956	1.300605	-8.913874
O	-1.301547	-1.300605	-6.407840
O	-3.804838	-1.300605	-8.913874
O	-3.854757	3.854228	-8.961462
O	-1.251639	3.854228	-6.360252
O	-1.251639	1.253017	-8.961462
O	1.301560	1.300605	-6.407840
Pa	-5.106397	0.000000	-5.107235
Pa	-2.553188	-2.553622	-7.660857
Pb	-6.383002	-1.276811	-8.937658
Pb	1.276596	-1.276811	-6.384046
Pb	-1.276603	1.276811	-6.384046
Pb	-3.829793	1.276811	-8.937658
O	1.251641	6.360252	-6.360252
O	-1.301559	6.407840	-8.913874
O	3.804850	3.806629	-6.407840
O	1.301559	3.806630	-8.913874
O	1.251641	8.961462	-8.961462
O	3.854758	8.961462	-6.360252
O	3.854758	6.360252	-8.961462
O	6.407958	6.407840	-6.407840
Pa	0.000000	5.107235	-5.107235
Pa	2.553209	2.553612	-7.660857
Pb	-1.276605	3.830424	-8.937658
Pb	6.382994	3.830424	-6.384046
Pb	3.829794	6.384046	-6.384046
Pb	1.276605	6.384046	-8.937658
O	6.358038	-3.854218	-1.253017
O	3.804838	-3.806630	-3.806639
O	8.911247	-6.407840	-1.300605
O	6.407956	-6.407840	-3.806639
O	6.358038	-1.253007	-3.854228
O	8.961156	-1.253007	-1.253017
O	8.961156	-3.854218	-3.854228
O	11.514355	-3.806629	-1.300605
Pa	5.106397	-5.107235	0.000000
Pa	7.659607	-7.660857	-2.553622
Pb	3.829793	-6.384046	-3.830424
Pb	11.489391	-6.384046	-1.276811
Pb	8.936191	-3.830424	-1.276811
Pb	6.383002	-3.830424	-3.830424
O	11.464435	1.253017	-1.253017
O	8.911236	1.300605	-3.806639
O	14.017645	-1.300605	-1.300605
O	11.514353	-1.300605	-3.806639
O	11.464435	3.854228	-3.854228
O	14.067553	3.854228	-1.253017
O	14.067553	1.253017	-3.854228
O	16.620752	1.300605	-1.300605
Pa	10.212795	0.000000	0.000000
Pa	12.766004	-2.553622	-2.553622
Pb	8.936190	-1.276811	-3.830424
Pb	16.595788	-1.276811	-1.276811
Pb	14.042589	1.276811	-1.276811
Pb	11.489399	1.276811	-3.830424
O	1.251641	-3.854218	-6.360252
O	-1.301559	-3.806630	-8.913874
O	3.804850	-6.407840	-6.407840
O	1.301559	-6.407840	-8.913874
O	1.251641	-1.253007	-8.961462
O	3.854758	-1.253007	-6.360252
O	3.854758	-3.854218	-8.961462
O	6.407958	-3.806629	-6.407840
Pa	0.000000	-5.107235	-5.107235
Pa	2.553209	-7.660857	-7.660857
Pb	-1.276605	-6.384046	-8.937658
Pb	6.382994	-6.384046	-6.384046
Pb	3.829794	-3.830424	-6.384046
Pb	1.276605	-3.830424	-8.937658
O	6.358038	1.253017	-6.360252
O	3.804838	1.300605	-8.913874
O	8.911247	-1.300605	-6.407840
O	6.407956	-1.300605	-8.913874
O	6.358038	3.854228	-8.961462
O	8.961156	3.854228	-6.360252
O	8.961156	1.253017	-8.961462
O	11.514355	1.300605	-6.407840
Pa	5.106397	0.000000	-5.107235
Pa	7.659607	-2.553622	-7.660857
Pb	3.829793	-1.276811	-8.937658
Pb	11.489391	-1.276811	-6.384046
Pb	8.936191	1.276811	-6.384046
Pb	6.383002	1.276811	-8.937658
