40

Ga	0.000000	0.000000	0.000000
Nd	2.116117	2.116117	2.116117
O	2.116117	2.116117	0.000000
O	0.000000	2.116117	2.116117
O	2.116117	0.000000	2.116117
Ga	0.000000	0.000000	4.232235
Nd	2.116117	2.116117	6.348352
O	2.116117	2.116117	4.232235
O	0.000000	2.116117	6.348352
O	2.116117	0.000000	6.348352
Ga	0.000000	4.232235	0.000000
Nd	2.116117	6.348352	2.116117
O	2.116117	6.348352	0.000000
O	0.000000	6.348352	2.116117
O	2.116117	4.232235	2.116117
Ga	0.000000	4.232235	4.232235
Nd	2.116117	6.348352	6.348352
O	2.116117	6.348352	4.232235
O	0.000000	6.348352	6.348352
O	2.116117	4.232235	6.348352
Ga	4.232235	0.000000	0.000000
Nd	6.348352	2.116117	2.116117
O	6.348352	2.116117	0.000000
O	4.232235	2.116117	2.116117
O	6.348352	0.000000	2.116117
Ga	4.232235	0.000000	4.232235
Nd	6.348352	2.116117	6.348352
O	6.348352	2.116117	4.232235
O	4.232235	2.116117	6.348352
O	6.348352	0.000000	6.348352
Ga	4.232235	4.232235	0.000000
Nd	6.348352	6.348352	2.116117
O	6.348352	6.348352	0.000000
O	4.232235	6.348352	2.116117
O	6.348352	4.232235	2.116117
Ga	4.232235	4.232235	4.232235
Nd	6.348352	6.348352	6.348352
O	6.348352	6.348352	4.232235
O	4.232235	6.348352	6.348352
O	6.348352	4.232235	6.348352
