40

Al	1.910658	1.910658	1.910658
O	1.910658	1.910658	0.000000
O	1.910658	0.000000	1.910658
O	0.000000	1.910658	1.910658
Pb	0.000000	0.000000	0.000000
Al	1.910658	1.910658	5.731974
O	1.910658	1.910658	3.821316
O	1.910658	0.000000	5.731974
O	0.000000	1.910658	5.731974
Pb	0.000000	0.000000	3.821316
Al	1.910658	5.731974	1.910658
O	1.910658	5.731974	0.000000
O	1.910658	3.821316	1.910658
O	0.000000	5.731974	1.910658
Pb	0.000000	3.821316	0.000000
Al	1.910658	5.731974	5.731974
O	1.910658	5.731974	3.821316
O	1.910658	3.821316	5.731974
O	0.000000	5.731974	5.731974
Pb	0.000000	3.821316	3.821316
Al	5.731974	1.910658	1.910658
O	5.731974	1.910658	0.000000
O	5.731974	0.000000	1.910658
O	3.821316	1.910658	1.910658
Pb	3.821316	0.000000	0.000000
Al	5.731974	1.910658	5.731974
O	5.731974	1.910658	3.821316
O	5.731974	0.000000	5.731974
O	3.821316	1.910658	5.731974
Pb	3.821316	0.000000	3.821316
Al	5.731974	5.731974	1.910658
O	5.731974	5.731974	0.000000
O	5.731974	3.821316	1.910658
O	3.821316	5.731974	1.910658
Pb	3.821316	3.821316	0.000000
Al	5.731974	5.731974	5.731974
O	5.731974	5.731974	3.821316
O	5.731974	3.821316	5.731974
O	3.821316	5.731974	5.731974
Pb	3.821316	3.821316	3.821316
