40

O	2.174330	2.174330	0.000000
O	0.000000	2.174330	2.174330
O	2.174330	0.000000	2.174330
Pb_d	2.174330	2.174330	2.174330
Rb_sv	0.000000	0.000000	0.000000
O	2.174330	2.174330	4.348657
O	0.000000	2.174330	6.522987
O	2.174330	0.000000	6.522987
Pb_d	2.174330	2.174330	6.522987
Rb_sv	0.000000	0.000000	4.348657
O	2.174330	6.522987	0.000000
O	0.000000	6.522987	2.174330
O	2.174330	4.348657	2.174330
Pb_d	2.174330	6.522987	2.174330
Rb_sv	0.000000	4.348657	0.000000
O	2.174330	6.522987	4.348657
O	0.000000	6.522987	6.522987
O	2.174330	4.348657	6.522987
Pb_d	2.174330	6.522987	6.522987
Rb_sv	0.000000	4.348657	4.348657
O	6.522987	2.174330	0.000000
O	4.348657	2.174330	2.174330
O	6.522987	0.000000	2.174330
Pb_d	6.522987	2.174330	2.174330
Rb_sv	4.348657	0.000000	0.000000
O	6.522987	2.174330	4.348657
O	4.348657	2.174330	6.522987
O	6.522987	0.000000	6.522987
Pb_d	6.522987	2.174330	6.522987
Rb_sv	4.348657	0.000000	4.348657
O	6.522987	6.522987	0.000000
O	4.348657	6.522987	2.174330
O	6.522987	4.348657	2.174330
Pb_d	6.522987	6.522987	2.174330
Rb_sv	4.348657	4.348657	0.000000
O	6.522987	6.522987	4.348657
O	4.348657	6.522987	6.522987
O	6.522987	4.348657	6.522987
Pb_d	6.522987	6.522987	6.522987
Rb_sv	4.348657	4.348657	4.348657
