40

Ca	0.000000	0.000000	0.000000
O	0.000000	2.174117	2.174117
O	2.174117	0.000000	2.174117
O	2.174117	2.174117	0.000000
Y	2.174117	2.174117	2.174117
Ca	0.000000	0.000000	4.348235
O	0.000000	2.174117	6.522352
O	2.174117	0.000000	6.522352
O	2.174117	2.174117	4.348235
Y	2.174117	2.174117	6.522352
Ca	0.000000	4.348235	0.000000
O	0.000000	6.522352	2.174117
O	2.174117	4.348235	2.174117
O	2.174117	6.522352	0.000000
Y	2.174117	6.522352	2.174117
Ca	0.000000	4.348235	4.348235
O	0.000000	6.522352	6.522352
O	2.174117	4.348235	6.522352
O	2.174117	6.522352	4.348235
Y	2.174117	6.522352	6.522352
Ca	4.348235	0.000000	0.000000
O	4.348235	2.174117	2.174117
O	6.522352	0.000000	2.174117
O	6.522352	2.174117	0.000000
Y	6.522352	2.174117	2.174117
Ca	4.348235	0.000000	4.348235
O	4.348235	2.174117	6.522352
O	6.522352	0.000000	6.522352
O	6.522352	2.174117	4.348235
Y	6.522352	2.174117	6.522352
Ca	4.348235	4.348235	0.000000
O	4.348235	6.522352	2.174117
O	6.522352	4.348235	2.174117
O	6.522352	6.522352	0.000000
Y	6.522352	6.522352	2.174117
Ca	4.348235	4.348235	4.348235
O	4.348235	6.522352	6.522352
O	6.522352	4.348235	6.522352
O	6.522352	6.522352	4.348235
Y	6.522352	6.522352	6.522352
