40

O	2.237514	2.237514	0.000000
O	2.237514	0.000000	2.237514
O	0.000000	2.237514	2.237514
Pt	0.000000	0.000000	0.000000
Sr	2.237514	2.237514	2.237514
O	2.237514	2.237514	4.475036
O	2.237514	0.000000	6.712551
O	0.000000	2.237514	6.712551
Pt	0.000000	0.000000	4.475036
Sr	2.237514	2.237514	6.712551
O	2.237514	6.712551	0.000000
O	2.237514	4.475036	2.237514
O	0.000000	6.712551	2.237514
Pt	0.000000	4.475036	0.000000
Sr	2.237514	6.712551	2.237514
O	2.237514	6.712551	4.475036
O	2.237514	4.475036	6.712551
O	0.000000	6.712551	6.712551
Pt	0.000000	4.475036	4.475036
Sr	2.237514	6.712551	6.712551
O	6.712551	2.237514	0.000000
O	6.712551	0.000000	2.237514
O	4.475036	2.237514	2.237514
Pt	4.475036	0.000000	0.000000
Sr	6.712551	2.237514	2.237514
O	6.712551	2.237514	4.475036
O	6.712551	0.000000	6.712551
O	4.475036	2.237514	6.712551
Pt	4.475036	0.000000	4.475036
Sr	6.712551	2.237514	6.712551
O	6.712551	6.712551	0.000000
O	6.712551	4.475036	2.237514
O	4.475036	6.712551	2.237514
Pt	4.475036	4.475036	0.000000
Sr	6.712551	6.712551	2.237514
O	6.712551	6.712551	4.475036
O	6.712551	4.475036	6.712551
O	4.475036	6.712551	6.712551
Pt	4.475036	4.475036	4.475036
Sr	6.712551	6.712551	6.712551
