40

B	0.000000	0.000000	0.000000
O	0.000000	1.933076	1.933076
O	1.933076	0.000000	1.933076
O	1.933076	1.933076	0.000000
Tc	1.933076	1.933076	1.933076
B	0.000000	0.000000	3.866152
O	0.000000	1.933076	5.799228
O	1.933076	0.000000	5.799228
O	1.933076	1.933076	3.866152
Tc	1.933076	1.933076	5.799228
B	0.000000	3.866152	0.000000
O	0.000000	5.799228	1.933076
O	1.933076	3.866152	1.933076
O	1.933076	5.799228	0.000000
Tc	1.933076	5.799228	1.933076
B	0.000000	3.866152	3.866152
O	0.000000	5.799228	5.799228
O	1.933076	3.866152	5.799228
O	1.933076	5.799228	3.866152
Tc	1.933076	5.799228	5.799228
B	3.866152	0.000000	0.000000
O	3.866152	1.933076	1.933076
O	5.799228	0.000000	1.933076
O	5.799228	1.933076	0.000000
Tc	5.799228	1.933076	1.933076
B	3.866152	0.000000	3.866152
O	3.866152	1.933076	5.799228
O	5.799228	0.000000	5.799228
O	5.799228	1.933076	3.866152
Tc	5.799228	1.933076	5.799228
B	3.866152	3.866152	0.000000
O	3.866152	5.799228	1.933076
O	5.799228	3.866152	1.933076
O	5.799228	5.799228	0.000000
Tc	5.799228	5.799228	1.933076
B	3.866152	3.866152	3.866152
O	3.866152	5.799228	5.799228
O	5.799228	3.866152	5.799228
O	5.799228	5.799228	3.866152
Tc	5.799228	5.799228	5.799228
