40

Ca	2.322538	2.322538	2.322538
F	0.000000	0.000000	0.000000
O	0.000000	2.322538	2.322538
O	2.322538	0.000000	2.322538
O	2.322538	2.322538	0.000000
Ca	2.322538	2.322538	6.967615
F	0.000000	0.000000	4.645077
O	0.000000	2.322538	6.967615
O	2.322538	0.000000	6.967615
O	2.322538	2.322538	4.645077
Ca	2.322538	6.967615	2.322538
F	0.000000	4.645077	0.000000
O	0.000000	6.967615	2.322538
O	2.322538	4.645077	2.322538
O	2.322538	6.967615	0.000000
Ca	2.322538	6.967615	6.967615
F	0.000000	4.645077	4.645077
O	0.000000	6.967615	6.967615
O	2.322538	4.645077	6.967615
O	2.322538	6.967615	4.645077
Ca	6.967615	2.322538	2.322538
F	4.645077	0.000000	0.000000
O	4.645077	2.322538	2.322538
O	6.967615	0.000000	2.322538
O	6.967615	2.322538	0.000000
Ca	6.967615	2.322538	6.967615
F	4.645077	0.000000	4.645077
O	4.645077	2.322538	6.967615
O	6.967615	0.000000	6.967615
O	6.967615	2.322538	4.645077
Ca	6.967615	6.967615	2.322538
F	4.645077	4.645077	0.000000
O	4.645077	6.967615	2.322538
O	6.967615	4.645077	2.322538
O	6.967615	6.967615	0.000000
Ca	6.967615	6.967615	6.967615
F	4.645077	4.645077	4.645077
O	4.645077	6.967615	6.967615
O	6.967615	4.645077	6.967615
O	6.967615	6.967615	4.645077
