40

Ce	0.000000	0.000000	0.000000
Cr	1.945956	1.945956	1.945956
O	1.945956	1.945956	0.000000
O	1.945956	0.000000	1.945956
O	0.000000	1.945956	1.945956
Ce	0.000000	0.000000	3.891912
Cr	1.945956	1.945956	5.837867
O	1.945956	1.945956	3.891912
O	1.945956	0.000000	5.837867
O	0.000000	1.945956	5.837867
Ce	0.000000	3.891912	0.000000
Cr	1.945956	5.837867	1.945956
O	1.945956	5.837867	0.000000
O	1.945956	3.891912	1.945956
O	0.000000	5.837867	1.945956
Ce	0.000000	3.891912	3.891912
Cr	1.945956	5.837867	5.837867
O	1.945956	5.837867	3.891912
O	1.945956	3.891912	5.837867
O	0.000000	5.837867	5.837867
Ce	3.891912	0.000000	0.000000
Cr	5.837867	1.945956	1.945956
O	5.837867	1.945956	0.000000
O	5.837867	0.000000	1.945956
O	3.891912	1.945956	1.945956
Ce	3.891912	0.000000	3.891912
Cr	5.837867	1.945956	5.837867
O	5.837867	1.945956	3.891912
O	5.837867	0.000000	5.837867
O	3.891912	1.945956	5.837867
Ce	3.891912	3.891912	0.000000
Cr	5.837867	5.837867	1.945956
O	5.837867	5.837867	0.000000
O	5.837867	3.891912	1.945956
O	3.891912	5.837867	1.945956
Ce	3.891912	3.891912	3.891912
Cr	5.837867	5.837867	5.837867
O	5.837867	5.837867	3.891912
O	5.837867	3.891912	5.837867
O	3.891912	5.837867	5.837867
