40

Cr	0.000000	0.000000	0.000000
Hg	2.088000	2.088000	2.088000
O	0.000000	2.088000	2.088000
O	2.088000	0.000000	2.088000
O	2.088000	2.088000	0.000000
Cr	0.000000	0.000000	4.176000
Hg	2.088000	2.088000	6.264001
O	0.000000	2.088000	6.264001
O	2.088000	0.000000	6.264001
O	2.088000	2.088000	4.176000
Cr	0.000000	4.176000	0.000000
Hg	2.088000	6.264001	2.088000
O	0.000000	6.264001	2.088000
O	2.088000	4.176000	2.088000
O	2.088000	6.264001	0.000000
Cr	0.000000	4.176000	4.176000
Hg	2.088000	6.264001	6.264001
O	0.000000	6.264001	6.264001
O	2.088000	4.176000	6.264001
O	2.088000	6.264001	4.176000
Cr	4.176000	0.000000	0.000000
Hg	6.264001	2.088000	2.088000
O	4.176000	2.088000	2.088000
O	6.264001	0.000000	2.088000
O	6.264001	2.088000	0.000000
Cr	4.176000	0.000000	4.176000
Hg	6.264001	2.088000	6.264001
O	4.176000	2.088000	6.264001
O	6.264001	0.000000	6.264001
O	6.264001	2.088000	4.176000
Cr	4.176000	4.176000	0.000000
Hg	6.264001	6.264001	2.088000
O	4.176000	6.264001	2.088000
O	6.264001	4.176000	2.088000
O	6.264001	6.264001	0.000000
Cr	4.176000	4.176000	4.176000
Hg	6.264001	6.264001	6.264001
O	4.176000	6.264001	6.264001
O	6.264001	4.176000	6.264001
O	6.264001	6.264001	4.176000
