40

Ga	0.000000	0.000000	0.000000
Ni	1.834449	1.834449	1.834449
O	0.000000	1.834449	1.834449
O	1.834449	0.000000	1.834449
O	1.834449	1.834449	0.000000
Ga	0.000000	0.000000	3.668898
Ni	1.834449	1.834449	5.503347
O	0.000000	1.834449	5.503347
O	1.834449	0.000000	5.503347
O	1.834449	1.834449	3.668898
Ga	0.000000	3.668898	0.000000
Ni	1.834449	5.503347	1.834449
O	0.000000	5.503347	1.834449
O	1.834449	3.668898	1.834449
O	1.834449	5.503347	0.000000
Ga	0.000000	3.668898	3.668898
Ni	1.834449	5.503347	5.503347
O	0.000000	5.503347	5.503347
O	1.834449	3.668898	5.503347
O	1.834449	5.503347	3.668898
Ga	3.668898	0.000000	0.000000
Ni	5.503347	1.834449	1.834449
O	3.668898	1.834449	1.834449
O	5.503347	0.000000	1.834449
O	5.503347	1.834449	0.000000
Ga	3.668898	0.000000	3.668898
Ni	5.503347	1.834449	5.503347
O	3.668898	1.834449	5.503347
O	5.503347	0.000000	5.503347
O	5.503347	1.834449	3.668898
Ga	3.668898	3.668898	0.000000
Ni	5.503347	5.503347	1.834449
O	3.668898	5.503347	1.834449
O	5.503347	3.668898	1.834449
O	5.503347	5.503347	0.000000
Ga	3.668898	3.668898	3.668898
Ni	5.503347	5.503347	5.503347
O	3.668898	5.503347	5.503347
O	5.503347	3.668898	5.503347
O	5.503347	5.503347	3.668898
