40

In	2.055469	2.055469	2.055469
O	0.000000	2.055469	2.055469
O	2.055469	0.000000	2.055469
O	2.055469	2.055469	0.000000
Ru	0.000000	0.000000	0.000000
In	2.055469	2.055469	6.166408
O	0.000000	2.055469	6.166408
O	2.055469	0.000000	6.166408
O	2.055469	2.055469	4.110939
Ru	0.000000	0.000000	4.110939
In	2.055469	6.166408	2.055469
O	0.000000	6.166408	2.055469
O	2.055469	4.110939	2.055469
O	2.055469	6.166408	0.000000
Ru	0.000000	4.110939	0.000000
In	2.055469	6.166408	6.166408
O	0.000000	6.166408	6.166408
O	2.055469	4.110939	6.166408
O	2.055469	6.166408	4.110939
Ru	0.000000	4.110939	4.110939
In	6.166408	2.055469	2.055469
O	4.110939	2.055469	2.055469
O	6.166408	0.000000	2.055469
O	6.166408	2.055469	0.000000
Ru	4.110939	0.000000	0.000000
In	6.166408	2.055469	6.166408
O	4.110939	2.055469	6.166408
O	6.166408	0.000000	6.166408
O	6.166408	2.055469	4.110939
Ru	4.110939	0.000000	4.110939
In	6.166408	6.166408	2.055469
O	4.110939	6.166408	2.055469
O	6.166408	4.110939	2.055469
O	6.166408	6.166408	0.000000
Ru	4.110939	4.110939	0.000000
In	6.166408	6.166408	6.166408
O	4.110939	6.166408	6.166408
O	6.166408	4.110939	6.166408
O	6.166408	6.166408	4.110939
Ru	4.110939	4.110939	4.110939
