40

Be	0.000000	0.000000	0.000000
In	2.039636	2.039636	2.039636
O	0.000000	2.039636	2.039636
O	2.039636	0.000000	2.039636
O	2.039636	2.039636	0.000000
Be	0.000000	0.000000	4.079272
In	2.039636	2.039636	6.118908
O	0.000000	2.039636	6.118908
O	2.039636	0.000000	6.118908
O	2.039636	2.039636	4.079272
Be	0.000000	4.079272	0.000000
In	2.039636	6.118908	2.039636
O	0.000000	6.118908	2.039636
O	2.039636	4.079272	2.039636
O	2.039636	6.118908	0.000000
Be	0.000000	4.079272	4.079272
In	2.039636	6.118908	6.118908
O	0.000000	6.118908	6.118908
O	2.039636	4.079272	6.118908
O	2.039636	6.118908	4.079272
Be	4.079272	0.000000	0.000000
In	6.118908	2.039636	2.039636
O	4.079272	2.039636	2.039636
O	6.118908	0.000000	2.039636
O	6.118908	2.039636	0.000000
Be	4.079272	0.000000	4.079272
In	6.118908	2.039636	6.118908
O	4.079272	2.039636	6.118908
O	6.118908	0.000000	6.118908
O	6.118908	2.039636	4.079272
Be	4.079272	4.079272	0.000000
In	6.118908	6.118908	2.039636
O	4.079272	6.118908	2.039636
O	6.118908	4.079272	2.039636
O	6.118908	6.118908	0.000000
Be	4.079272	4.079272	4.079272
In	6.118908	6.118908	6.118908
O	4.079272	6.118908	6.118908
O	6.118908	4.079272	6.118908
O	6.118908	6.118908	4.079272
