40

As	0.000000	0.000000	0.000000
Bi	2.109460	2.109460	2.109460
O	2.109460	0.000000	2.109460
O	0.000000	2.109460	2.109460
O	2.109460	2.109460	0.000000
As	0.000000	0.000000	4.218915
Bi	2.109460	2.109460	6.328375
O	2.109460	0.000000	6.328375
O	0.000000	2.109460	6.328375
O	2.109460	2.109460	4.218915
As	0.000000	4.218915	0.000000
Bi	2.109460	6.328375	2.109460
O	2.109460	4.218915	2.109460
O	0.000000	6.328375	2.109460
O	2.109460	6.328375	0.000000
As	0.000000	4.218915	4.218915
Bi	2.109460	6.328375	6.328375
O	2.109460	4.218915	6.328375
O	0.000000	6.328375	6.328375
O	2.109460	6.328375	4.218915
As	4.218915	0.000000	0.000000
Bi	6.328375	2.109460	2.109460
O	6.328375	0.000000	2.109460
O	4.218915	2.109460	2.109460
O	6.328375	2.109460	0.000000
As	4.218915	0.000000	4.218915
Bi	6.328375	2.109460	6.328375
O	6.328375	0.000000	6.328375
O	4.218915	2.109460	6.328375
O	6.328375	2.109460	4.218915
As	4.218915	4.218915	0.000000
Bi	6.328375	6.328375	2.109460
O	6.328375	4.218915	2.109460
O	4.218915	6.328375	2.109460
O	6.328375	6.328375	0.000000
As	4.218915	4.218915	4.218915
Bi	6.328375	6.328375	6.328375
O	6.328375	4.218915	6.328375
O	4.218915	6.328375	6.328375
O	6.328375	6.328375	4.218915
