40

As	2.027530	2.027530	2.027530
Bi	0.000000	0.000000	0.000000
O	0.000000	2.027530	2.027530
O	2.027530	0.000000	2.027530
O	2.027530	2.027530	0.000000
As	2.027530	2.027530	6.082591
Bi	0.000000	0.000000	4.055061
O	0.000000	2.027530	6.082591
O	2.027530	0.000000	6.082591
O	2.027530	2.027530	4.055061
As	2.027530	6.082591	2.027530
Bi	0.000000	4.055061	0.000000
O	0.000000	6.082591	2.027530
O	2.027530	4.055061	2.027530
O	2.027530	6.082591	0.000000
As	2.027530	6.082591	6.082591
Bi	0.000000	4.055061	4.055061
O	0.000000	6.082591	6.082591
O	2.027530	4.055061	6.082591
O	2.027530	6.082591	4.055061
As	6.082591	2.027530	2.027530
Bi	4.055061	0.000000	0.000000
O	4.055061	2.027530	2.027530
O	6.082591	0.000000	2.027530
O	6.082591	2.027530	0.000000
As	6.082591	2.027530	6.082591
Bi	4.055061	0.000000	4.055061
O	4.055061	2.027530	6.082591
O	6.082591	0.000000	6.082591
O	6.082591	2.027530	4.055061
As	6.082591	6.082591	2.027530
Bi	4.055061	4.055061	0.000000
O	4.055061	6.082591	2.027530
O	6.082591	4.055061	2.027530
O	6.082591	6.082591	0.000000
As	6.082591	6.082591	6.082591
Bi	4.055061	4.055061	4.055061
O	4.055061	6.082591	6.082591
O	6.082591	4.055061	6.082591
O	6.082591	6.082591	4.055061
