40

Au	0.000000	0.000000	0.000000
K	2.151022	2.151022	2.151022
O	2.151022	2.151022	0.000000
O	2.151022	0.000000	2.151022
O	0.000000	2.151022	2.151022
Au	0.000000	0.000000	4.302045
K	2.151022	2.151022	6.453068
O	2.151022	2.151022	4.302045
O	2.151022	0.000000	6.453068
O	0.000000	2.151022	6.453068
Au	0.000000	4.302045	0.000000
K	2.151022	6.453068	2.151022
O	2.151022	6.453068	0.000000
O	2.151022	4.302045	2.151022
O	0.000000	6.453068	2.151022
Au	0.000000	4.302045	4.302045
K	2.151022	6.453068	6.453068
O	2.151022	6.453068	4.302045
O	2.151022	4.302045	6.453068
O	0.000000	6.453068	6.453068
Au	4.302045	0.000000	0.000000
K	6.453068	2.151022	2.151022
O	6.453068	2.151022	0.000000
O	6.453068	0.000000	2.151022
O	4.302045	2.151022	2.151022
Au	4.302045	0.000000	4.302045
K	6.453068	2.151022	6.453068
O	6.453068	2.151022	4.302045
O	6.453068	0.000000	6.453068
O	4.302045	2.151022	6.453068
Au	4.302045	4.302045	0.000000
K	6.453068	6.453068	2.151022
O	6.453068	6.453068	0.000000
O	6.453068	4.302045	2.151022
O	4.302045	6.453068	2.151022
Au	4.302045	4.302045	4.302045
K	6.453068	6.453068	6.453068
O	6.453068	6.453068	4.302045
O	6.453068	4.302045	6.453068
O	4.302045	6.453068	6.453068
