40

Mn	1.849773	1.849773	1.849773
O	0.000000	1.849773	1.849773
O	1.849773	0.000000	1.849773
O	1.849773	1.849773	0.000000
Rh	0.000000	0.000000	0.000000
Mn	1.849773	1.849773	5.549320
O	0.000000	1.849773	5.549320
O	1.849773	0.000000	5.549320
O	1.849773	1.849773	3.699547
Rh	0.000000	0.000000	3.699547
Mn	1.849773	5.549320	1.849773
O	0.000000	5.549320	1.849773
O	1.849773	3.699547	1.849773
O	1.849773	5.549320	0.000000
Rh	0.000000	3.699547	0.000000
Mn	1.849773	5.549320	5.549320
O	0.000000	5.549320	5.549320
O	1.849773	3.699547	5.549320
O	1.849773	5.549320	3.699547
Rh	0.000000	3.699547	3.699547
Mn	5.549320	1.849773	1.849773
O	3.699547	1.849773	1.849773
O	5.549320	0.000000	1.849773
O	5.549320	1.849773	0.000000
Rh	3.699547	0.000000	0.000000
Mn	5.549320	1.849773	5.549320
O	3.699547	1.849773	5.549320
O	5.549320	0.000000	5.549320
O	5.549320	1.849773	3.699547
Rh	3.699547	0.000000	3.699547
Mn	5.549320	5.549320	1.849773
O	3.699547	5.549320	1.849773
O	5.549320	3.699547	1.849773
O	5.549320	5.549320	0.000000
Rh	3.699547	3.699547	0.000000
Mn	5.549320	5.549320	5.549320
O	3.699547	5.549320	5.549320
O	5.549320	3.699547	5.549320
O	5.549320	5.549320	3.699547
Rh	3.699547	3.699547	3.699547
