40

Co	1.843589	1.843589	1.843589
Hf	0.000000	0.000000	0.000000
O	1.843589	1.843589	0.000000
O	1.843589	0.000000	1.843589
O	0.000000	1.843589	1.843589
Co	1.843589	1.843589	5.530767
Hf	0.000000	0.000000	3.687178
O	1.843589	1.843589	3.687178
O	1.843589	0.000000	5.530767
O	0.000000	1.843589	5.530767
Co	1.843589	5.530767	1.843589
Hf	0.000000	3.687178	0.000000
O	1.843589	5.530767	0.000000
O	1.843589	3.687178	1.843589
O	0.000000	5.530767	1.843589
Co	1.843589	5.530767	5.530767
Hf	0.000000	3.687178	3.687178
O	1.843589	5.530767	3.687178
O	1.843589	3.687178	5.530767
O	0.000000	5.530767	5.530767
Co	5.530767	1.843589	1.843589
Hf	3.687178	0.000000	0.000000
O	5.530767	1.843589	0.000000
O	5.530767	0.000000	1.843589
O	3.687178	1.843589	1.843589
Co	5.530767	1.843589	5.530767
Hf	3.687178	0.000000	3.687178
O	5.530767	1.843589	3.687178
O	5.530767	0.000000	5.530767
O	3.687178	1.843589	5.530767
Co	5.530767	5.530767	1.843589
Hf	3.687178	3.687178	0.000000
O	5.530767	5.530767	0.000000
O	5.530767	3.687178	1.843589
O	3.687178	5.530767	1.843589
Co	5.530767	5.530767	5.530767
Hf	3.687178	3.687178	3.687178
O	5.530767	5.530767	3.687178
O	5.530767	3.687178	5.530767
O	3.687178	5.530767	5.530767
