112

O	3.548523	-1.255980	-1.255980
O	-1.258625	1.255980	-3.556217
O	1.258625	-1.255980	-3.556217
O	1.144949	1.150119	-1.150119
O	6.065773	1.255980	-1.255980
O	1.144949	3.662078	-3.662078
O	3.662199	3.662078	-1.150119
O	3.662199	1.150119	-3.662078
Sc	0.000000	0.000000	0.000000
Sc	2.403574	-2.406098	-2.406098
U	-1.201787	-1.203049	-3.609148
U	3.605361	1.203049	-1.203049
U	6.008935	-1.203049	-1.203049
U	1.201787	1.203049	-3.609148
O	8.355670	3.556217	-1.255980
O	3.548523	6.068177	-3.556217
O	6.065773	3.556217	-3.556217
O	5.952096	5.962315	-1.150119
O	10.872920	6.068177	-1.255980
O	5.952096	8.474275	-3.662078
O	8.469346	8.474275	-1.150119
O	8.469346	5.962315	-3.662078
Sc	4.807148	4.812197	0.000000
Sc	7.210721	2.406098	-2.406098
U	3.605361	3.609148	-3.609148
U	8.412508	6.015246	-1.203049
U	10.816082	3.609148	-1.203049
U	6.008935	6.015246	-3.609148
O	-1.258625	-1.255980	-6.068177
O	-6.065773	1.255980	-8.368414
O	-3.548523	-1.255980	-8.368414
O	-3.662199	1.150119	-5.962315
O	1.258625	1.255980	-6.068177
O	-3.662199	3.662078	-8.474275
O	-1.144949	3.662078	-5.962315
O	-1.144949	1.150119	-8.474275
Sc	-4.807148	0.000000	-4.812197
Sc	-2.403574	-2.406098	-7.218295
U	-6.008935	-1.203049	-8.421344
U	-1.201787	1.203049	-6.015246
U	1.201787	-1.203049	-6.015246
U	-3.605361	1.203049	-8.421344
O	3.548523	3.556217	-6.068177
O	-1.258625	6.068177	-8.368414
O	1.258625	3.556217	-8.368414
O	1.144949	5.962315	-5.962315
O	6.065773	6.068177	-6.068177
O	1.144949	8.474275	-8.474275
O	3.662199	8.474275	-5.962315
O	3.662199	5.962315	-8.474275
Sc	0.000000	4.812197	-4.812197
Sc	2.403574	2.406098	-7.218295
U	-1.201787	3.609148	-8.421344
U	3.605361	6.015246	-6.015246
U	6.008935	3.609148	-6.015246
U	1.201787	6.015246	-8.421344
O	8.355670	-6.068177	-1.255980
O	3.548523	-3.556217	-3.556217
O	6.065773	-6.068177	-3.556217
O	5.952096	-3.662078	-1.150119
O	10.872920	-3.556217	-1.255980
O	5.952096	-1.150119	-3.662078
O	8.469346	-1.150119	-1.150119
O	8.469346	-3.662078	-3.662078
Sc	4.807148	-4.812197	0.000000
Sc	7.210721	-7.218295	-2.406098
U	3.605361	-6.015246	-3.609148
U	8.412508	-3.609148	-1.203049
U	10.816082	-6.015246	-1.203049
U	6.008935	-3.609148	-3.609148
O	13.162818	-1.255980	-1.255980
O	8.355670	1.255980	-3.556217
O	10.872920	-1.255980	-3.556217
O	10.759244	1.150119	-1.150119
O	15.680068	1.255980	-1.255980
O	10.759244	3.662078	-3.662078
O	13.276494	3.662078	-1.150119
O	13.276494	1.150119	-3.662078
Sc	9.614295	0.000000	0.000000
Sc	12.017869	-2.406098	-2.406098
U	8.412508	-1.203049	-3.609148
U	13.219656	1.203049	-1.203049
U	15.623230	-1.203049	-1.203049
U	10.816082	1.203049	-3.609148
O	3.548523	-6.068177	-6.068177
O	-1.258625	-3.556217	-8.368414
O	1.258625	-6.068177	-8.368414
O	1.144949	-3.662078	-5.962315
O	6.065773	-3.556217	-6.068177
O	1.144949	-1.150119	-8.474275
O	3.662199	-1.150119	-5.962315
O	3.662199	-3.662078	-8.474275
Sc	0.000000	-4.812197	-4.812197
Sc	2.403574	-7.218295	-7.218295
U	-1.201787	-6.015246	-8.421344
U	3.605361	-3.609148	-6.015246
U	6.008935	-6.015246	-6.015246
U	1.201787	-3.609148	-8.421344
O	8.355670	-1.255980	-6.068177
O	3.548523	1.255980	-8.368414
O	6.065773	-1.255980	-8.368414
O	5.952096	1.150119	-5.962315
O	10.872920	1.255980	-6.068177
O	5.952096	3.662078	-8.474275
O	8.469346	3.662078	-5.962315
O	8.469346	1.150119	-8.474275
Sc	4.807148	0.000000	-4.812197
Sc	7.210721	-2.406098	-7.218295
U	3.605361	-1.203049	-8.421344
U	8.412508	1.203049	-6.015246
U	10.816082	-1.203049	-6.015246
U	6.008935	1.203049	-8.421344
