40

Be	0.000000	0.000000	0.000000
K	2.071145	2.071145	2.071145
O	2.071145	2.071145	0.000000
O	2.071145	0.000000	2.071145
O	0.000000	2.071145	2.071145
Be	0.000000	0.000000	4.142297
K	2.071145	2.071145	6.213441
O	2.071145	2.071145	4.142297
O	2.071145	0.000000	6.213441
O	0.000000	2.071145	6.213441
Be	0.000000	4.142297	0.000000
K	2.071145	6.213441	2.071145
O	2.071145	6.213441	0.000000
O	2.071145	4.142297	2.071145
O	0.000000	6.213441	2.071145
Be	0.000000	4.142297	4.142297
K	2.071145	6.213441	6.213441
O	2.071145	6.213441	4.142297
O	2.071145	4.142297	6.213441
O	0.000000	6.213441	6.213441
Be	4.142297	0.000000	0.000000
K	6.213441	2.071145	2.071145
O	6.213441	2.071145	0.000000
O	6.213441	0.000000	2.071145
O	4.142297	2.071145	2.071145
Be	4.142297	0.000000	4.142297
K	6.213441	2.071145	6.213441
O	6.213441	2.071145	4.142297
O	6.213441	0.000000	6.213441
O	4.142297	2.071145	6.213441
Be	4.142297	4.142297	0.000000
K	6.213441	6.213441	2.071145
O	6.213441	6.213441	0.000000
O	6.213441	4.142297	2.071145
O	4.142297	6.213441	2.071145
Be	4.142297	4.142297	4.142297
K	6.213441	6.213441	6.213441
O	6.213441	6.213441	4.142297
O	6.213441	4.142297	6.213441
O	4.142297	6.213441	6.213441
