40

Hg	2.077698	2.077698	2.077698
O	2.077698	2.077698	0.000000
O	2.077698	0.000000	2.077698
O	0.000000	2.077698	2.077698
Si	0.000000	0.000000	0.000000
Hg	2.077698	2.077698	6.233094
O	2.077698	2.077698	4.155396
O	2.077698	0.000000	6.233094
O	0.000000	2.077698	6.233094
Si	0.000000	0.000000	4.155396
Hg	2.077698	6.233094	2.077698
O	2.077698	6.233094	0.000000
O	2.077698	4.155396	2.077698
O	0.000000	6.233094	2.077698
Si	0.000000	4.155396	0.000000
Hg	2.077698	6.233094	6.233094
O	2.077698	6.233094	4.155396
O	2.077698	4.155396	6.233094
O	0.000000	6.233094	6.233094
Si	0.000000	4.155396	4.155396
Hg	6.233094	2.077698	2.077698
O	6.233094	2.077698	0.000000
O	6.233094	0.000000	2.077698
O	4.155396	2.077698	2.077698
Si	4.155396	0.000000	0.000000
Hg	6.233094	2.077698	6.233094
O	6.233094	2.077698	4.155396
O	6.233094	0.000000	6.233094
O	4.155396	2.077698	6.233094
Si	4.155396	0.000000	4.155396
Hg	6.233094	6.233094	2.077698
O	6.233094	6.233094	0.000000
O	6.233094	4.155396	2.077698
O	4.155396	6.233094	2.077698
Si	4.155396	4.155396	0.000000
Hg	6.233094	6.233094	6.233094
O	6.233094	6.233094	4.155396
O	6.233094	4.155396	6.233094
O	4.155396	6.233094	6.233094
Si	4.155396	4.155396	4.155396
