112

O	3.618727	-1.061459	-1.061459
O	-1.061055	1.061459	-3.621164
O	1.061055	-1.061459	-3.621164
O	1.278836	1.279852	-1.279852
O	5.740837	1.061459	-1.061459
O	1.278836	3.402771	-3.402771
O	3.400946	3.402771	-1.279852
O	3.400946	1.279852	-3.402771
Ru	0.000000	0.000000	0.000000
Ru	2.339891	-2.341312	-2.341312
Tm	-1.169945	-1.170656	-3.511967
Tm	3.509836	1.170656	-1.170656
Tm	5.849727	-1.170656	-1.170656
Tm	1.169945	1.170656	-3.511967
O	8.298508	3.621164	-1.061459
O	3.618727	5.744082	-3.621164
O	5.740837	3.621164	-3.621164
O	5.958618	5.962475	-1.279852
O	10.420618	5.744082	-1.061459
O	5.958618	8.085394	-3.402771
O	8.080727	8.085394	-1.279852
O	8.080727	5.962475	-3.402771
Ru	4.679782	4.682623	0.000000
Ru	7.019673	2.341312	-2.341312
Tm	3.509836	3.511967	-3.511967
Tm	8.189618	5.853279	-1.170656
Tm	10.529509	3.511967	-1.170656
Tm	5.849727	5.853279	-3.511967
O	-1.061055	-1.061459	-5.744082
O	-5.740837	1.061459	-8.303787
O	-3.618727	-1.061459	-8.303787
O	-3.400946	1.279852	-5.962475
O	1.061055	1.061459	-5.744082
O	-3.400946	3.402771	-8.085394
O	-1.278836	3.402771	-5.962475
O	-1.278836	1.279852	-8.085394
Ru	-4.679782	0.000000	-4.682623
Ru	-2.339891	-2.341312	-7.023935
Tm	-5.849727	-1.170656	-8.194590
Tm	-1.169945	1.170656	-5.853279
Tm	1.169945	-1.170656	-5.853279
Tm	-3.509836	1.170656	-8.194590
O	3.618727	3.621164	-5.744082
O	-1.061055	5.744082	-8.303787
O	1.061055	3.621164	-8.303787
O	1.278836	5.962475	-5.962475
O	5.740837	5.744082	-5.744082
O	1.278836	8.085394	-8.085394
O	3.400946	8.085394	-5.962475
O	3.400946	5.962475	-8.085394
Ru	0.000000	4.682623	-4.682623
Ru	2.339891	2.341312	-7.023935
Tm	-1.169945	3.511967	-8.194590
Tm	3.509836	5.853279	-5.853279
Tm	5.849727	3.511967	-5.853279
Tm	1.169945	5.853279	-8.194590
O	8.298508	-5.744082	-1.061459
O	3.618727	-3.621164	-3.621164
O	5.740837	-5.744082	-3.621164
O	5.958618	-3.402771	-1.279852
O	10.420618	-3.621164	-1.061459
O	5.958618	-1.279852	-3.402771
O	8.080727	-1.279852	-1.279852
O	8.080727	-3.402771	-3.402771
Ru	4.679782	-4.682623	0.000000
Ru	7.019673	-7.023935	-2.341312
Tm	3.509836	-5.853279	-3.511967
Tm	8.189618	-3.511967	-1.170656
Tm	10.529509	-5.853279	-1.170656
Tm	5.849727	-3.511967	-3.511967
O	12.978290	-1.061459	-1.061459
O	8.298508	1.061459	-3.621164
O	10.420618	-1.061459	-3.621164
O	10.638399	1.279852	-1.279852
O	15.100400	1.061459	-1.061459
O	10.638399	3.402771	-3.402771
O	12.760509	3.402771	-1.279852
O	12.760509	1.279852	-3.402771
Ru	9.359563	0.000000	0.000000
Ru	11.699454	-2.341312	-2.341312
Tm	8.189618	-1.170656	-3.511967
Tm	12.869400	1.170656	-1.170656
Tm	15.209290	-1.170656	-1.170656
Tm	10.529509	1.170656	-3.511967
O	3.618727	-5.744082	-5.744082
O	-1.061055	-3.621164	-8.303787
O	1.061055	-5.744082	-8.303787
O	1.278836	-3.402771	-5.962475
O	5.740837	-3.621164	-5.744082
O	1.278836	-1.279852	-8.085394
O	3.400946	-1.279852	-5.962475
O	3.400946	-3.402771	-8.085394
Ru	0.000000	-4.682623	-4.682623
Ru	2.339891	-7.023935	-7.023935
Tm	-1.169945	-5.853279	-8.194590
Tm	3.509836	-3.511967	-5.853279
Tm	5.849727	-5.853279	-5.853279
Tm	1.169945	-3.511967	-8.194590
O	8.298508	-1.061459	-5.744082
O	3.618727	1.061459	-8.303787
O	5.740837	-1.061459	-8.303787
O	5.958618	1.279852	-5.962475
O	10.420618	1.061459	-5.744082
O	5.958618	3.402771	-8.085394
O	8.080727	3.402771	-5.962475
O	8.080727	1.279852	-8.085394
Ru	4.679782	0.000000	-4.682623
Ru	7.019673	-2.341312	-7.023935
Tm	3.509836	-1.170656	-8.194590
Tm	8.189618	1.170656	-5.853279
Tm	10.529509	-1.170656	-5.853279
Tm	5.849727	1.170656	-8.194590
