40

O	2.072340	2.072340	0.000000
O	0.000000	2.072340	2.072340
O	2.072340	0.000000	2.072340
Pr	0.000000	0.000000	0.000000
Yb	2.072340	2.072340	2.072340
O	2.072340	2.072340	4.144676
O	0.000000	2.072340	6.217016
O	2.072340	0.000000	6.217016
Pr	0.000000	0.000000	4.144676
Yb	2.072340	2.072340	6.217016
O	2.072340	6.217016	0.000000
O	0.000000	6.217016	2.072340
O	2.072340	4.144676	2.072340
Pr	0.000000	4.144676	0.000000
Yb	2.072340	6.217016	2.072340
O	2.072340	6.217016	4.144676
O	0.000000	6.217016	6.217016
O	2.072340	4.144676	6.217016
Pr	0.000000	4.144676	4.144676
Yb	2.072340	6.217016	6.217016
O	6.217016	2.072340	0.000000
O	4.144676	2.072340	2.072340
O	6.217016	0.000000	2.072340
Pr	4.144676	0.000000	0.000000
Yb	6.217016	2.072340	2.072340
O	6.217016	2.072340	4.144676
O	4.144676	2.072340	6.217016
O	6.217016	0.000000	6.217016
Pr	4.144676	0.000000	4.144676
Yb	6.217016	2.072340	6.217016
O	6.217016	6.217016	0.000000
O	4.144676	6.217016	2.072340
O	6.217016	4.144676	2.072340
Pr	4.144676	4.144676	0.000000
Yb	6.217016	6.217016	2.072340
O	6.217016	6.217016	4.144676
O	4.144676	6.217016	6.217016
O	6.217016	4.144676	6.217016
Pr	4.144676	4.144676	4.144676
Yb	6.217016	6.217016	6.217016
