112

Ag	0.000000	0.000000	0.000000
Ag	2.313252	-2.308748	-2.308748
Au	-1.156626	-1.154374	-3.463122
Au	3.469879	1.154374	-1.154374
Au	5.783131	-1.154374	-1.154374
Au	1.156626	1.154374	-3.463122
O	3.629711	-0.992297	-0.992297
O	-0.996794	0.992297	-3.625199
O	0.996794	-0.992297	-3.625199
O	1.316459	1.316451	-1.316451
O	5.623299	0.992297	-0.992297
O	1.316459	3.301045	-3.301045
O	3.310046	3.301045	-1.316451
O	3.310046	1.316451	-3.301045
Ag	4.626505	4.617496	0.000000
Ag	6.939757	2.308748	-2.308748
Au	3.469879	3.463122	-3.463122
Au	8.096384	5.771870	-1.154374
Au	10.409636	3.463122	-1.154374
Au	5.783131	5.771870	-3.463122
O	8.256216	3.625199	-0.992297
O	3.629711	5.609793	-3.625199
O	5.623299	3.625199	-3.625199
O	5.942964	5.933947	-1.316451
O	10.249803	5.609793	-0.992297
O	5.942964	7.918541	-3.301045
O	7.936551	7.918541	-1.316451
O	7.936551	5.933947	-3.301045
Ag	-4.626505	0.000000	-4.617496
Ag	-2.313252	-2.308748	-6.926244
Au	-5.783131	-1.154374	-8.080618
Au	-1.156626	1.154374	-5.771870
Au	1.156626	-1.154374	-5.771870
Au	-3.469879	1.154374	-8.080618
O	-0.996794	-0.992297	-5.609793
O	-5.623299	0.992297	-8.242695
O	-3.629711	-0.992297	-8.242695
O	-3.310046	1.316451	-5.933947
O	0.996794	0.992297	-5.609793
O	-3.310046	3.301045	-7.918541
O	-1.316459	3.301045	-5.933947
O	-1.316459	1.316451	-7.918541
Ag	0.000000	4.617496	-4.617496
Ag	2.313252	2.308748	-6.926244
Au	-1.156626	3.463122	-8.080618
Au	3.469879	5.771870	-5.771870
Au	5.783131	3.463122	-5.771870
Au	1.156626	5.771870	-8.080618
O	3.629711	3.625199	-5.609793
O	-0.996794	5.609793	-8.242695
O	0.996794	3.625199	-8.242695
O	1.316459	5.933947	-5.933947
O	5.623299	5.609793	-5.609793
O	1.316459	7.918541	-7.918541
O	3.310046	7.918541	-5.933947
O	3.310046	5.933947	-7.918541
Ag	4.626505	-4.617496	0.000000
Ag	6.939757	-6.926244	-2.308748
Au	3.469879	-5.771870	-3.463122
Au	8.096384	-3.463122	-1.154374
Au	10.409636	-5.771870	-1.154374
Au	5.783131	-3.463122	-3.463122
O	8.256216	-5.609793	-0.992297
O	3.629711	-3.625199	-3.625199
O	5.623299	-5.609793	-3.625199
O	5.942964	-3.301045	-1.316451
O	10.249803	-3.625199	-0.992297
O	5.942964	-1.316451	-3.301045
O	7.936551	-1.316451	-1.316451
O	7.936551	-3.301045	-3.301045
Ag	9.253010	0.000000	0.000000
Ag	11.566262	-2.308748	-2.308748
Au	8.096384	-1.154374	-3.463122
Au	12.722889	1.154374	-1.154374
Au	15.036141	-1.154374	-1.154374
Au	10.409636	1.154374	-3.463122
O	12.882721	-0.992297	-0.992297
O	8.256216	0.992297	-3.625199
O	10.249803	-0.992297	-3.625199
O	10.569469	1.316451	-1.316451
O	14.876308	0.992297	-0.992297
O	10.569469	3.301045	-3.301045
O	12.563056	3.301045	-1.316451
O	12.563056	1.316451	-3.301045
Ag	0.000000	-4.617496	-4.617496
Ag	2.313252	-6.926244	-6.926244
Au	-1.156626	-5.771870	-8.080618
Au	3.469879	-3.463122	-5.771870
Au	5.783131	-5.771870	-5.771870
Au	1.156626	-3.463122	-8.080618
O	3.629711	-5.609793	-5.609793
O	-0.996794	-3.625199	-8.242695
O	0.996794	-5.609793	-8.242695
O	1.316459	-3.301045	-5.933947
O	5.623299	-3.625199	-5.609793
O	1.316459	-1.316451	-7.918541
O	3.310046	-1.316451	-5.933947
O	3.310046	-3.301045	-7.918541
Ag	4.626505	0.000000	-4.617496
Ag	6.939757	-2.308748	-6.926244
Au	3.469879	-1.154374	-8.080618
Au	8.096384	1.154374	-5.771870
Au	10.409636	-1.154374	-5.771870
Au	5.783131	1.154374	-8.080618
O	8.256216	-0.992297	-5.609793
O	3.629711	0.992297	-8.242695
O	5.623299	-0.992297	-8.242695
O	5.942964	1.316451	-5.933947
O	10.249803	0.992297	-5.609793
O	5.942964	3.301045	-7.918541
O	7.936551	3.301045	-5.933947
O	7.936551	1.316451	-7.918541
