40

O	1.936340	1.936340	0.000000
O	0.000000	1.936340	1.936340
O	1.936340	0.000000	1.936340
Os	0.000000	0.000000	0.000000
Ru	1.936340	1.936340	1.936340
O	1.936340	1.936340	3.872678
O	0.000000	1.936340	5.809018
O	1.936340	0.000000	5.809018
Os	0.000000	0.000000	3.872678
Ru	1.936340	1.936340	5.809018
O	1.936340	5.809018	0.000000
O	0.000000	5.809018	1.936340
O	1.936340	3.872678	1.936340
Os	0.000000	3.872678	0.000000
Ru	1.936340	5.809018	1.936340
O	1.936340	5.809018	3.872678
O	0.000000	5.809018	5.809018
O	1.936340	3.872678	5.809018
Os	0.000000	3.872678	3.872678
Ru	1.936340	5.809018	5.809018
O	5.809018	1.936340	0.000000
O	3.872678	1.936340	1.936340
O	5.809018	0.000000	1.936340
Os	3.872678	0.000000	0.000000
Ru	5.809018	1.936340	1.936340
O	5.809018	1.936340	3.872678
O	3.872678	1.936340	5.809018
O	5.809018	0.000000	5.809018
Os	3.872678	0.000000	3.872678
Ru	5.809018	1.936340	5.809018
O	5.809018	5.809018	0.000000
O	3.872678	5.809018	1.936340
O	5.809018	3.872678	1.936340
Os	3.872678	3.872678	0.000000
Ru	5.809018	5.809018	1.936340
O	5.809018	5.809018	3.872678
O	3.872678	5.809018	5.809018
O	5.809018	3.872678	5.809018
Os	3.872678	3.872678	3.872678
Ru	5.809018	5.809018	5.809018
