40

Ce	2.242126	2.242126	2.242126
O	2.242126	2.242126	0.000000
O	0.000000	2.242126	2.242126
O	2.242126	0.000000	2.242126
W	0.000000	0.000000	0.000000
Ce	2.242126	2.242126	6.726388
O	2.242126	2.242126	4.484262
O	0.000000	2.242126	6.726388
O	2.242126	0.000000	6.726388
W	0.000000	0.000000	4.484262
Ce	2.242126	6.726388	2.242126
O	2.242126	6.726388	0.000000
O	0.000000	6.726388	2.242126
O	2.242126	4.484262	2.242126
W	0.000000	4.484262	0.000000
Ce	2.242126	6.726388	6.726388
O	2.242126	6.726388	4.484262
O	0.000000	6.726388	6.726388
O	2.242126	4.484262	6.726388
W	0.000000	4.484262	4.484262
Ce	6.726388	2.242126	2.242126
O	6.726388	2.242126	0.000000
O	4.484262	2.242126	2.242126
O	6.726388	0.000000	2.242126
W	4.484262	0.000000	0.000000
Ce	6.726388	2.242126	6.726388
O	6.726388	2.242126	4.484262
O	4.484262	2.242126	6.726388
O	6.726388	0.000000	6.726388
W	4.484262	0.000000	4.484262
Ce	6.726388	6.726388	2.242126
O	6.726388	6.726388	0.000000
O	4.484262	6.726388	2.242126
O	6.726388	4.484262	2.242126
W	4.484262	4.484262	0.000000
Ce	6.726388	6.726388	6.726388
O	6.726388	6.726388	4.484262
O	4.484262	6.726388	6.726388
O	6.726388	4.484262	6.726388
W	4.484262	4.484262	4.484262
