40

O	2.071055	2.071055	0.000000
O	2.071055	0.000000	2.071055
O	0.000000	2.071055	2.071055
Yb	2.071055	2.071055	2.071055
Zn	0.000000	0.000000	0.000000
O	2.071055	2.071055	4.142111
O	2.071055	0.000000	6.213166
O	0.000000	2.071055	6.213166
Yb	2.071055	2.071055	6.213166
Zn	0.000000	0.000000	4.142111
O	2.071055	6.213166	0.000000
O	2.071055	4.142111	2.071055
O	0.000000	6.213166	2.071055
Yb	2.071055	6.213166	2.071055
Zn	0.000000	4.142111	0.000000
O	2.071055	6.213166	4.142111
O	2.071055	4.142111	6.213166
O	0.000000	6.213166	6.213166
Yb	2.071055	6.213166	6.213166
Zn	0.000000	4.142111	4.142111
O	6.213166	2.071055	0.000000
O	6.213166	0.000000	2.071055
O	4.142111	2.071055	2.071055
Yb	6.213166	2.071055	2.071055
Zn	4.142111	0.000000	0.000000
O	6.213166	2.071055	4.142111
O	6.213166	0.000000	6.213166
O	4.142111	2.071055	6.213166
Yb	6.213166	2.071055	6.213166
Zn	4.142111	0.000000	4.142111
O	6.213166	6.213166	0.000000
O	6.213166	4.142111	2.071055
O	4.142111	6.213166	2.071055
Yb	6.213166	6.213166	2.071055
Zn	4.142111	4.142111	0.000000
O	6.213166	6.213166	4.142111
O	6.213166	4.142111	6.213166
O	4.142111	6.213166	6.213166
Yb	6.213166	6.213166	6.213166
Zn	4.142111	4.142111	4.142111
