112

Ba	0.000000	0.000000	0.000000
Ba	2.327017	-2.327777	-2.327777
Ir	-1.163503	-1.163894	-3.491671
Ir	5.817527	-1.163894	-1.163894
Ir	1.163503	1.163894	-3.491671
Ir	3.490520	1.163894	-1.163894
O	3.757344	-0.896430	-0.896430
O	-0.896680	0.896430	-3.759135
O	0.896680	-0.896430	-3.759135
O	1.430327	1.431347	-1.431347
O	5.550713	0.896430	-0.896430
O	1.430327	3.224207	-3.224207
O	3.223696	3.224207	-1.431347
O	3.223696	1.431347	-3.224207
Ba	4.654024	4.655561	0.000000
Ba	6.981041	2.327783	-2.327777
Ir	3.490521	3.491667	-3.491671
Ir	10.471551	3.491667	-1.163894
Ir	5.817528	5.819454	-3.491671
Ir	8.144544	5.819454	-1.163894
O	8.411368	3.759131	-0.896430
O	3.757345	5.551991	-3.759135
O	5.550704	3.759131	-3.759135
O	6.084351	6.086908	-1.431347
O	10.204737	5.551991	-0.896430
O	6.084351	7.879768	-3.224207
O	7.877721	7.879768	-1.431347
O	7.877721	6.086908	-3.224207
Ba	-4.654024	0.000000	-4.655561
Ba	-2.327008	-2.327777	-6.983338
Ir	-5.817528	-1.163894	-8.147232
Ir	1.163502	-1.163894	-5.819454
Ir	-3.490521	1.163894	-8.147232
Ir	-1.163505	1.163894	-5.819454
O	-0.896681	-0.896430	-5.551991
O	-5.550704	0.896430	-8.414695
O	-3.757345	-0.896430	-8.414695
O	-3.223697	1.431347	-6.086908
O	0.896688	0.896430	-5.551991
O	-3.223697	3.224207	-7.879768
O	-1.430328	3.224207	-6.086908
O	-1.430328	1.431347	-7.879768
Ba	0.000000	4.655561	-4.655561
Ba	2.327017	2.327783	-6.983338
Ir	-1.163503	3.491667	-8.147232
Ir	5.817527	3.491667	-5.819454
Ir	1.163503	5.819454	-8.147232
Ir	3.490520	5.819454	-5.819454
O	3.757344	3.759131	-5.551991
O	-0.896680	5.551991	-8.414695
O	0.896680	3.759131	-8.414695
O	1.430327	6.086908	-6.086908
O	5.550713	5.551991	-5.551991
O	1.430327	7.879768	-7.879768
O	3.223696	7.879768	-6.086908
O	3.223696	6.086908	-7.879768
Ba	4.654024	-4.655561	0.000000
Ba	6.981041	-6.983338	-2.327777
Ir	3.490521	-5.819454	-3.491671
Ir	10.471551	-5.819454	-1.163894
Ir	5.817528	-3.491667	-3.491671
Ir	8.144544	-3.491667	-1.163894
O	8.411368	-5.551991	-0.896430
O	3.757345	-3.759131	-3.759135
O	5.550704	-5.551991	-3.759135
O	6.084351	-3.224213	-1.431347
O	10.204737	-3.759131	-0.896430
O	6.084351	-1.431353	-3.224207
O	7.877721	-1.431353	-1.431347
O	7.877721	-3.224213	-3.224207
Ba	9.308049	0.000000	0.000000
Ba	11.635066	-2.327777	-2.327777
Ir	8.144546	-1.163894	-3.491671
Ir	15.125575	-1.163894	-1.163894
Ir	10.471552	1.163894	-3.491671
Ir	12.798569	1.163894	-1.163894
O	13.065392	-0.896430	-0.896430
O	8.411369	0.896430	-3.759135
O	10.204729	-0.896430	-3.759135
O	10.738376	1.431347	-1.431347
O	14.858762	0.896430	-0.896430
O	10.738376	3.224207	-3.224207
O	12.531745	3.224207	-1.431347
O	12.531745	1.431347	-3.224207
Ba	0.000000	-4.655561	-4.655561
Ba	2.327017	-6.983338	-6.983338
Ir	-1.163503	-5.819454	-8.147232
Ir	5.817527	-5.819454	-5.819454
Ir	1.163503	-3.491667	-8.147232
Ir	3.490520	-3.491667	-5.819454
O	3.757344	-5.551991	-5.551991
O	-0.896680	-3.759131	-8.414695
O	0.896680	-5.551991	-8.414695
O	1.430327	-3.224213	-6.086908
O	5.550713	-3.759131	-5.551991
O	1.430327	-1.431353	-7.879768
O	3.223696	-1.431353	-6.086908
O	3.223696	-3.224213	-7.879768
Ba	4.654024	0.000000	-4.655561
Ba	6.981041	-2.327777	-6.983338
Ir	3.490521	-1.163894	-8.147232
Ir	10.471551	-1.163894	-5.819454
Ir	5.817528	1.163894	-8.147232
Ir	8.144544	1.163894	-5.819454
O	8.411368	-0.896430	-5.551991
O	3.757345	0.896430	-8.414695
O	5.550704	-0.896430	-8.414695
O	6.084351	1.431347	-6.086908
O	10.204737	0.896430	-5.551991
O	6.084351	3.224207	-7.879768
O	7.877721	3.224207	-6.086908
O	7.877721	1.431347	-7.879768
