80

O	4.672244	3.272190	5.340205
O	3.892524	1.090154	6.686935
O	2.355138	3.285424	6.686917
O	3.884808	1.084729	4.006830
O	2.347423	3.279999	4.006812
O	1.567702	1.097963	5.353542
Al	0.000000	0.000000	0.000000
Al	3.119973	2.185077	5.346874
Pr	1.559987	1.092538	2.673437
Pr	4.679960	3.277615	8.020310
O	4.687675	3.283040	10.700415
O	3.907954	1.101004	12.047145
O	2.370569	3.296275	12.047127
O	3.900239	1.095579	9.367040
O	2.362853	3.290849	9.367022
O	1.583133	1.108814	10.713752
Al	0.015431	0.010850	5.360210
Al	3.135404	2.195927	10.707084
Pr	1.575417	1.103389	8.033647
Pr	4.695390	3.288465	13.380521
O	6.247116	7.647112	8.006955
O	5.467396	5.465076	9.353685
O	3.930010	7.660346	9.353667
O	5.459680	5.459651	6.673580
O	3.922295	7.654921	6.673562
O	3.142574	5.472885	8.020292
Al	1.574872	4.374922	2.666750
Al	4.694845	6.559998	8.013624
Pr	3.134859	5.467460	5.340187
Pr	6.254832	7.652537	10.687060
O	6.262547	7.657962	13.367166
O	5.482826	5.475926	14.713896
O	3.945441	7.671196	14.713878
O	5.475111	5.470501	12.033791
O	3.937725	7.665771	12.033772
O	3.158005	5.483735	13.380502
Al	1.590303	4.385772	8.026961
Al	4.710276	6.570849	13.373834
Pr	3.150289	5.478310	10.700397
Pr	6.270262	7.663387	16.047271
O	9.321887	3.256571	8.006992
O	8.542167	1.074535	9.353722
O	7.004781	3.269806	9.353703
O	8.534451	1.069110	6.673616
O	6.997066	3.264381	6.673598
O	6.217345	1.082345	8.020328
Al	4.649643	-0.015619	2.666786
Al	7.769616	2.169458	8.013660
Pr	6.209630	1.076920	5.340223
Pr	9.329603	3.261996	10.687097
O	9.337318	3.267421	13.367202
O	8.557597	1.085386	14.713932
O	7.020212	3.280656	14.713914
O	8.549882	1.079961	12.033827
O	7.012497	3.275231	12.033809
O	6.232776	1.093195	13.380539
Al	4.665074	-0.004768	8.026997
Al	7.785047	2.180308	13.373870
Pr	6.225061	1.087770	10.700434
Pr	9.345034	3.272846	16.047307
O	10.896760	7.631493	10.673742
O	10.117039	5.449457	12.020472
O	8.579653	7.644727	12.020454
O	10.109324	5.444032	9.340367
O	8.571938	7.639302	9.340349
O	7.792217	5.457266	10.687079
Al	6.224515	4.359303	5.333537
Al	9.344488	6.544380	10.680410
Pr	7.784502	5.451841	8.006973
Pr	10.904475	7.636918	13.353847
O	10.912190	7.642343	16.033952
O	10.132470	5.460307	17.380682
O	8.595084	7.655578	17.380664
O	10.124754	5.454882	14.700577
O	8.587369	7.650152	14.700559
O	7.807648	5.468117	16.047289
Al	6.239946	4.370153	10.693747
Al	9.359919	6.555230	16.040621
Pr	7.799933	5.462692	13.367184
Pr	10.919906	7.647768	18.714057
