40

O	2.087050	2.087050	0.000000
O	0.000000	2.087050	2.087050
O	2.087050	0.000000	2.087050
Pb_d	2.087050	2.087050	2.087050
Yb_2	0.000000	0.000000	0.000000
O	2.087050	2.087050	4.174097
O	0.000000	2.087050	6.261147
O	2.087050	0.000000	6.261147
Pb_d	2.087050	2.087050	6.261147
Yb_2	0.000000	0.000000	4.174097
O	2.087050	6.261147	0.000000
O	0.000000	6.261147	2.087050
O	2.087050	4.174097	2.087050
Pb_d	2.087050	6.261147	2.087050
Yb_2	0.000000	4.174097	0.000000
O	2.087050	6.261147	4.174097
O	0.000000	6.261147	6.261147
O	2.087050	4.174097	6.261147
Pb_d	2.087050	6.261147	6.261147
Yb_2	0.000000	4.174097	4.174097
O	6.261147	2.087050	0.000000
O	4.174097	2.087050	2.087050
O	6.261147	0.000000	2.087050
Pb_d	6.261147	2.087050	2.087050
Yb_2	4.174097	0.000000	0.000000
O	6.261147	2.087050	4.174097
O	4.174097	2.087050	6.261147
O	6.261147	0.000000	6.261147
Pb_d	6.261147	2.087050	6.261147
Yb_2	4.174097	0.000000	4.174097
O	6.261147	6.261147	0.000000
O	4.174097	6.261147	2.087050
O	6.261147	4.174097	2.087050
Pb_d	6.261147	6.261147	2.087050
Yb_2	4.174097	4.174097	0.000000
O	6.261147	6.261147	4.174097
O	4.174097	6.261147	6.261147
O	6.261147	4.174097	6.261147
Pb_d	6.261147	6.261147	6.261147
Yb_2	4.174097	4.174097	4.174097
