40

Al	1.824510	1.824510	1.824510
O	1.824510	1.824510	0.000000
O	0.000000	1.824510	1.824510
O	1.824510	0.000000	1.824510
Re	0.000000	0.000000	0.000000
Al	1.824510	1.824510	5.473531
O	1.824510	1.824510	3.649021
O	0.000000	1.824510	5.473531
O	1.824510	0.000000	5.473531
Re	0.000000	0.000000	3.649021
Al	1.824510	5.473531	1.824510
O	1.824510	5.473531	0.000000
O	0.000000	5.473531	1.824510
O	1.824510	3.649021	1.824510
Re	0.000000	3.649021	0.000000
Al	1.824510	5.473531	5.473531
O	1.824510	5.473531	3.649021
O	0.000000	5.473531	5.473531
O	1.824510	3.649021	5.473531
Re	0.000000	3.649021	3.649021
Al	5.473531	1.824510	1.824510
O	5.473531	1.824510	0.000000
O	3.649021	1.824510	1.824510
O	5.473531	0.000000	1.824510
Re	3.649021	0.000000	0.000000
Al	5.473531	1.824510	5.473531
O	5.473531	1.824510	3.649021
O	3.649021	1.824510	5.473531
O	5.473531	0.000000	5.473531
Re	3.649021	0.000000	3.649021
Al	5.473531	5.473531	1.824510
O	5.473531	5.473531	0.000000
O	3.649021	5.473531	1.824510
O	5.473531	3.649021	1.824510
Re	3.649021	3.649021	0.000000
Al	5.473531	5.473531	5.473531
O	5.473531	5.473531	3.649021
O	3.649021	5.473531	5.473531
O	5.473531	3.649021	5.473531
Re	3.649021	3.649021	3.649021
