40

Bi	0.000000	0.000000	0.000000
Cr	1.958383	1.958383	1.958383
O	0.000000	1.958383	1.958383
O	1.958383	0.000000	1.958383
O	1.958383	1.958383	0.000000
Bi	0.000000	0.000000	3.916765
Cr	1.958383	1.958383	5.875148
O	0.000000	1.958383	5.875148
O	1.958383	0.000000	5.875148
O	1.958383	1.958383	3.916765
Bi	0.000000	3.916765	0.000000
Cr	1.958383	5.875148	1.958383
O	0.000000	5.875148	1.958383
O	1.958383	3.916765	1.958383
O	1.958383	5.875148	0.000000
Bi	0.000000	3.916765	3.916765
Cr	1.958383	5.875148	5.875148
O	0.000000	5.875148	5.875148
O	1.958383	3.916765	5.875148
O	1.958383	5.875148	3.916765
Bi	3.916765	0.000000	0.000000
Cr	5.875148	1.958383	1.958383
O	3.916765	1.958383	1.958383
O	5.875148	0.000000	1.958383
O	5.875148	1.958383	0.000000
Bi	3.916765	0.000000	3.916765
Cr	5.875148	1.958383	5.875148
O	3.916765	1.958383	5.875148
O	5.875148	0.000000	5.875148
O	5.875148	1.958383	3.916765
Bi	3.916765	3.916765	0.000000
Cr	5.875148	5.875148	1.958383
O	3.916765	5.875148	1.958383
O	5.875148	3.916765	1.958383
O	5.875148	5.875148	0.000000
Bi	3.916765	3.916765	3.916765
Cr	5.875148	5.875148	5.875148
O	3.916765	5.875148	5.875148
O	5.875148	3.916765	5.875148
O	5.875148	5.875148	3.916765
