40

Ag	0.000000	0.000000	0.000000
La	2.271572	2.271572	2.271572
O	2.271572	2.271572	0.000000
O	2.271572	0.000000	2.271572
O	0.000000	2.271572	2.271572
Ag	0.000000	0.000000	4.543144
La	2.271572	2.271572	6.814716
O	2.271572	2.271572	4.543144
O	2.271572	0.000000	6.814716
O	0.000000	2.271572	6.814716
Ag	0.000000	4.543144	0.000000
La	2.271572	6.814716	2.271572
O	2.271572	6.814716	0.000000
O	2.271572	4.543144	2.271572
O	0.000000	6.814716	2.271572
Ag	0.000000	4.543144	4.543144
La	2.271572	6.814716	6.814716
O	2.271572	6.814716	4.543144
O	2.271572	4.543144	6.814716
O	0.000000	6.814716	6.814716
Ag	4.543144	0.000000	0.000000
La	6.814716	2.271572	2.271572
O	6.814716	2.271572	0.000000
O	6.814716	0.000000	2.271572
O	4.543144	2.271572	2.271572
Ag	4.543144	0.000000	4.543144
La	6.814716	2.271572	6.814716
O	6.814716	2.271572	4.543144
O	6.814716	0.000000	6.814716
O	4.543144	2.271572	6.814716
Ag	4.543144	4.543144	0.000000
La	6.814716	6.814716	2.271572
O	6.814716	6.814716	0.000000
O	6.814716	4.543144	2.271572
O	4.543144	6.814716	2.271572
Ag	4.543144	4.543144	4.543144
La	6.814716	6.814716	6.814716
O	6.814716	6.814716	4.543144
O	6.814716	4.543144	6.814716
O	4.543144	6.814716	6.814716
