112

Bi	0.000000	0.000000	0.000000
Bi	2.345549	-2.347266	-2.347266
O	3.793665	-0.897790	-0.897790
O	-0.897433	0.897790	-3.796743
O	0.897433	-0.897790	-3.796743
O	1.448116	1.449476	-1.449476
O	5.588530	0.897790	-0.897790
O	1.448116	3.245056	-3.245056
O	3.242981	3.245056	-1.449476
O	3.242981	1.449476	-3.245056
Ta	-1.172774	-1.173633	-3.520899
Ta	3.518323	1.173633	-1.173633
Ta	5.863872	-1.173633	-1.173633
Ta	1.172774	1.173633	-3.520899
Bi	4.691097	4.694533	0.000000
Bi	7.036646	2.347266	-2.347266
O	8.484762	3.796743	-0.897790
O	3.793665	5.592322	-3.796743
O	5.588530	3.796743	-3.796743
O	6.139214	6.144009	-1.449476
O	10.279628	5.592322	-0.897790
O	6.139214	7.939589	-3.245056
O	7.934079	7.939589	-1.449476
O	7.934079	6.144009	-3.245056
Ta	3.518323	3.520899	-3.520899
Ta	8.209421	5.868166	-1.173633
Ta	10.554969	3.520899	-1.173633
Ta	5.863872	5.868166	-3.520899
Bi	-4.691097	0.000000	-4.694533
Bi	-2.345549	-2.347266	-7.041799
O	-0.897433	-0.897790	-5.592322
O	-5.588530	0.897790	-8.491275
O	-3.793665	-0.897790	-8.491275
O	-3.242981	1.449476	-6.144009
O	0.897433	0.897790	-5.592322
O	-3.242981	3.245056	-7.939589
O	-1.448116	3.245056	-6.144009
O	-1.448116	1.449476	-7.939589
Ta	-5.863872	-1.173633	-8.215432
Ta	-1.172774	1.173633	-5.868166
Ta	1.172774	-1.173633	-5.868166
Ta	-3.518323	1.173633	-8.215432
Bi	0.000000	4.694533	-4.694533
Bi	2.345549	2.347266	-7.041799
O	3.793665	3.796743	-5.592322
O	-0.897433	5.592322	-8.491275
O	0.897433	3.796743	-8.491275
O	1.448116	6.144009	-6.144009
O	5.588530	5.592322	-5.592322
O	1.448116	7.939589	-7.939589
O	3.242981	7.939589	-6.144009
O	3.242981	6.144009	-7.939589
Ta	-1.172774	3.520899	-8.215432
Ta	3.518323	5.868166	-5.868166
Ta	5.863872	3.520899	-5.868166
Ta	1.172774	5.868166	-8.215432
Bi	4.691097	-4.694533	0.000000
Bi	7.036646	-7.041799	-2.347266
O	8.484762	-5.592322	-0.897790
O	3.793665	-3.796743	-3.796743
O	5.588530	-5.592322	-3.796743
O	6.139214	-3.245056	-1.449476
O	10.279628	-3.796743	-0.897790
O	6.139214	-1.449476	-3.245056
O	7.934079	-1.449476	-1.449476
O	7.934079	-3.245056	-3.245056
Ta	3.518323	-5.868166	-3.520899
Ta	8.209421	-3.520899	-1.173633
Ta	10.554969	-5.868166	-1.173633
Ta	5.863872	-3.520899	-3.520899
Bi	9.382195	0.000000	0.000000
Bi	11.727744	-2.347266	-2.347266
O	13.175860	-0.897790	-0.897790
O	8.484762	0.897790	-3.796743
O	10.279628	-0.897790	-3.796743
O	10.830311	1.449476	-1.449476
O	14.970725	0.897790	-0.897790
O	10.830311	3.245056	-3.245056
O	12.625176	3.245056	-1.449476
O	12.625176	1.449476	-3.245056
Ta	8.209421	-1.173633	-3.520899
Ta	12.900518	1.173633	-1.173633
Ta	15.246067	-1.173633	-1.173633
Ta	10.554969	1.173633	-3.520899
Bi	0.000000	-4.694533	-4.694533
Bi	2.345549	-7.041799	-7.041799
O	3.793665	-5.592322	-5.592322
O	-0.897433	-3.796743	-8.491275
O	0.897433	-5.592322	-8.491275
O	1.448116	-3.245056	-6.144009
O	5.588530	-3.796743	-5.592322
O	1.448116	-1.449476	-7.939589
O	3.242981	-1.449476	-6.144009
O	3.242981	-3.245056	-7.939589
Ta	-1.172774	-5.868166	-8.215432
Ta	3.518323	-3.520899	-5.868166
Ta	5.863872	-5.868166	-5.868166
Ta	1.172774	-3.520899	-8.215432
Bi	4.691097	0.000000	-4.694533
Bi	7.036646	-2.347266	-7.041799
O	8.484762	-0.897790	-5.592322
O	3.793665	0.897790	-8.491275
O	5.588530	-0.897790	-8.491275
O	6.139214	1.449476	-6.144009
O	10.279628	0.897790	-5.592322
O	6.139214	3.245056	-7.939589
O	7.934079	3.245056	-6.144009
O	7.934079	1.449476	-7.939589
Ta	3.518323	-1.173633	-8.215432
Ta	8.209421	1.173633	-5.868166
Ta	10.554969	-1.173633	-5.868166
Ta	5.863872	1.173633	-8.215432
