112

Bi	0.000000	0.000000	0.000000
Bi	2.340487	-2.341079	-2.341079
O	3.781684	-0.898569	-0.898569
O	-0.899280	0.898569	-3.783578
O	0.899280	-0.898569	-3.783578
O	1.441207	1.442510	-1.442510
O	5.580254	0.898569	-0.898569
O	1.441207	3.239648	-3.239648
O	3.239767	3.239648	-1.442510
O	3.239767	1.442510	-3.239648
Ta	-1.170239	-1.170534	-3.511613
Ta	3.510726	1.170534	-1.170534
Ta	1.170239	1.170534	-3.511613
Ta	5.851213	-1.170534	-1.170534
Bi	4.680972	4.682150	0.000000
Bi	7.021459	2.341071	-2.341079
O	8.462656	3.783581	-0.898569
O	3.781692	5.580719	-3.783578
O	5.580252	3.783581	-3.783578
O	6.122179	6.124660	-1.442510
O	10.261226	5.580719	-0.898569
O	6.122179	7.921798	-3.239648
O	7.920739	7.921798	-1.442510
O	7.920739	6.124660	-3.239648
Ta	3.510733	3.511616	-3.511613
Ta	8.191698	5.852684	-1.170534
Ta	5.851210	5.852684	-3.511613
Ta	10.532185	3.511616	-1.170534
Bi	-4.680972	0.000000	-4.682150
Bi	-2.340485	-2.341079	-7.023229
O	-0.899287	-0.898569	-5.580719
O	-5.580252	0.898569	-8.465728
O	-3.781692	-0.898569	-8.465728
O	-3.239765	1.442510	-6.124660
O	0.899283	0.898569	-5.580719
O	-3.239765	3.239648	-7.921798
O	-1.441205	3.239648	-6.124660
O	-1.441205	1.442510	-7.921798
Ta	-5.851210	-1.170534	-8.193763
Ta	-1.170246	1.170534	-5.852684
Ta	-3.510733	1.170534	-8.193763
Ta	1.170241	-1.170534	-5.852684
Bi	0.000000	4.682150	-4.682150
Bi	2.340487	2.341071	-7.023229
O	3.781684	3.783581	-5.580719
O	-0.899280	5.580719	-8.465728
O	0.899280	3.783581	-8.465728
O	1.441207	6.124660	-6.124660
O	5.580254	5.580719	-5.580719
O	1.441207	7.921798	-7.921798
O	3.239767	7.921798	-6.124660
O	3.239767	6.124660	-7.921798
Ta	-1.170239	3.511616	-8.193763
Ta	3.510726	5.852684	-5.852684
Ta	1.170239	5.852684	-8.193763
Ta	5.851213	3.511616	-5.852684
Bi	4.680972	-4.682150	0.000000
Bi	7.021459	-7.023229	-2.341079
O	8.462656	-5.580719	-0.898569
O	3.781692	-3.783581	-3.783578
O	5.580252	-5.580719	-3.783578
O	6.122179	-3.239640	-1.442510
O	10.261226	-3.783581	-0.898569
O	6.122179	-1.442502	-3.239648
O	7.920739	-1.442502	-1.442510
O	7.920739	-3.239640	-3.239648
Ta	3.510733	-5.852684	-3.511613
Ta	8.191698	-3.511616	-1.170534
Ta	5.851210	-3.511616	-3.511613
Ta	10.532185	-5.852684	-1.170534
Bi	9.361944	0.000000	0.000000
Bi	11.702431	-2.341079	-2.341079
O	13.143628	-0.898569	-0.898569
O	8.462664	0.898569	-3.783578
O	10.261224	-0.898569	-3.783578
O	10.803151	1.442510	-1.442510
O	14.942198	0.898569	-0.898569
O	10.803151	3.239648	-3.239648
O	12.601711	3.239648	-1.442510
O	12.601711	1.442510	-3.239648
Ta	8.191705	-1.170534	-3.511613
Ta	12.872669	1.170534	-1.170534
Ta	10.532182	1.170534	-3.511613
Ta	15.213157	-1.170534	-1.170534
Bi	0.000000	-4.682150	-4.682150
Bi	2.340487	-7.023229	-7.023229
O	3.781684	-5.580719	-5.580719
O	-0.899280	-3.783581	-8.465728
O	0.899280	-5.580719	-8.465728
O	1.441207	-3.239640	-6.124660
O	5.580254	-3.783581	-5.580719
O	1.441207	-1.442502	-7.921798
O	3.239767	-1.442502	-6.124660
O	3.239767	-3.239640	-7.921798
Ta	-1.170239	-5.852684	-8.193763
Ta	3.510726	-3.511616	-5.852684
Ta	1.170239	-3.511616	-8.193763
Ta	5.851213	-5.852684	-5.852684
Bi	4.680972	0.000000	-4.682150
Bi	7.021459	-2.341079	-7.023229
O	8.462656	-0.898569	-5.580719
O	3.781692	0.898569	-8.465728
O	5.580252	-0.898569	-8.465728
O	6.122179	1.442510	-6.124660
O	10.261226	0.898569	-5.580719
O	6.122179	3.239648	-7.921798
O	7.920739	3.239648	-6.124660
O	7.920739	1.442510	-7.921798
Ta	3.510733	-1.170534	-8.193763
Ta	8.191698	1.170534	-5.852684
Ta	5.851210	1.170534	-8.193763
Ta	10.532185	-1.170534	-5.852684
