112

Al	0.000000	0.000000	0.000000
Al	2.026658	-2.026892	-2.026892
Li	-1.013324	-1.013446	-3.040329
Li	1.013324	1.013446	-3.040329
Li	5.066639	-1.013446	-1.013446
Li	3.039981	1.013446	-1.013446
O	1.016926	1.017433	-1.017433
O	-1.009732	1.009459	-3.044316
O	3.043583	-1.009459	-1.009459
O	1.009732	-1.009459	-3.044316
O	1.016926	3.036341	-3.036341
O	3.036389	3.036341	-1.017433
O	3.036389	1.017433	-3.036341
O	5.063037	1.009459	-1.009459
Al	4.053309	4.053776	0.000000
Al	6.079967	2.026884	-2.026892
Li	3.039986	3.040330	-3.040329
Li	5.066633	5.067223	-3.040329
Li	9.119948	3.040330	-1.013446
Li	7.093291	5.067223	-1.013446
O	5.070235	5.071210	-1.017433
O	3.043578	5.063235	-3.044316
O	7.096893	3.044317	-1.009459
O	5.063041	3.044317	-3.044316
O	5.070235	7.090118	-3.036341
O	7.089699	7.090118	-1.017433
O	7.089699	5.071210	-3.036341
O	9.116346	5.063235	-1.009459
Al	-4.053309	0.000000	-4.053776
Al	-2.026652	-2.026892	-6.080669
Li	-5.066633	-1.013446	-7.094105
Li	-3.039986	1.013446	-7.094105
Li	1.013329	-1.013446	-5.067223
Li	-1.013328	1.013446	-5.067223
O	-3.036384	1.017433	-5.071210
O	-5.063041	1.009459	-7.098092
O	-1.009726	-1.009459	-5.063235
O	-3.043578	-1.009459	-7.098092
O	-3.036384	3.036341	-7.090118
O	-1.016920	3.036341	-5.071210
O	-1.016920	1.017433	-7.090118
O	1.009727	1.009459	-5.063235
Al	0.000000	4.053776	-4.053776
Al	2.026658	2.026884	-6.080669
Li	-1.013324	3.040330	-7.094105
Li	1.013324	5.067223	-7.094105
Li	5.066639	3.040330	-5.067223
Li	3.039981	5.067223	-5.067223
O	1.016926	5.071210	-5.071210
O	-1.009732	5.063235	-7.098092
O	3.043583	3.044317	-5.063235
O	1.009732	3.044317	-7.098092
O	1.016926	7.090118	-7.090118
O	3.036389	7.090118	-5.071210
O	3.036389	5.071210	-7.090118
O	5.063037	5.063235	-5.063235
Al	4.053309	-4.053776	0.000000
Al	6.079967	-6.080669	-2.026892
Li	3.039986	-5.067223	-3.040329
Li	5.066633	-3.040330	-3.040329
Li	9.119948	-5.067223	-1.013446
Li	7.093291	-3.040330	-1.013446
O	5.070235	-3.036343	-1.017433
O	3.043578	-3.044317	-3.044316
O	7.096893	-5.063235	-1.009459
O	5.063041	-5.063235	-3.044316
O	5.070235	-1.017435	-3.036341
O	7.089699	-1.017435	-1.017433
O	7.089699	-3.036343	-3.036341
O	9.116346	-3.044318	-1.009459
Al	8.106619	0.000000	0.000000
Al	10.133276	-2.026892	-2.026892
Li	7.093295	-1.013446	-3.040329
Li	9.119943	1.013446	-3.040329
Li	13.173258	-1.013446	-1.013446
Li	11.146600	1.013446	-1.013446
O	9.123545	1.017433	-1.017433
O	7.096887	1.009459	-3.044316
O	11.150202	-1.009459	-1.009459
O	9.116351	-1.009459	-3.044316
O	9.123545	3.036341	-3.036341
O	11.143008	3.036341	-1.017433
O	11.143008	1.017433	-3.036341
O	13.169656	1.009459	-1.009459
Al	0.000000	-4.053776	-4.053776
Al	2.026658	-6.080669	-6.080669
Li	-1.013324	-5.067223	-7.094105
Li	1.013324	-3.040330	-7.094105
Li	5.066639	-5.067223	-5.067223
Li	3.039981	-3.040330	-5.067223
O	1.016926	-3.036343	-5.071210
O	-1.009732	-3.044317	-7.098092
O	3.043583	-5.063235	-5.063235
O	1.009732	-5.063235	-7.098092
O	1.016926	-1.017435	-7.090118
O	3.036389	-1.017435	-5.071210
O	3.036389	-3.036343	-7.090118
O	5.063037	-3.044318	-5.063235
Al	4.053309	0.000000	-4.053776
Al	6.079967	-2.026892	-6.080669
Li	3.039986	-1.013446	-7.094105
Li	5.066633	1.013446	-7.094105
Li	9.119948	-1.013446	-5.067223
Li	7.093291	1.013446	-5.067223
O	5.070235	1.017433	-5.071210
O	3.043578	1.009459	-7.098092
O	7.096893	-1.009459	-5.063235
O	5.063041	-1.009459	-7.098092
O	5.070235	3.036341	-7.090118
O	7.089699	3.036341	-5.071210
O	7.089699	1.017433	-7.090118
O	9.116346	1.009459	-5.063235
