40

Cu	0.000000	0.000000	0.000000
La	2.172812	2.172812	2.172812
O	2.172812	2.172812	0.000000
O	2.172812	0.000000	2.172812
O	0.000000	2.172812	2.172812
Cu	0.000000	0.000000	4.345618
La	2.172812	2.172812	6.518429
O	2.172812	2.172812	4.345618
O	2.172812	0.000000	6.518429
O	0.000000	2.172812	6.518429
Cu	0.000000	4.345618	0.000000
La	2.172812	6.518429	2.172812
O	2.172812	6.518429	0.000000
O	2.172812	4.345618	2.172812
O	0.000000	6.518429	2.172812
Cu	0.000000	4.345618	4.345618
La	2.172812	6.518429	6.518429
O	2.172812	6.518429	4.345618
O	2.172812	4.345618	6.518429
O	0.000000	6.518429	6.518429
Cu	4.345618	0.000000	0.000000
La	6.518429	2.172812	2.172812
O	6.518429	2.172812	0.000000
O	6.518429	0.000000	2.172812
O	4.345618	2.172812	2.172812
Cu	4.345618	0.000000	4.345618
La	6.518429	2.172812	6.518429
O	6.518429	2.172812	4.345618
O	6.518429	0.000000	6.518429
O	4.345618	2.172812	6.518429
Cu	4.345618	4.345618	0.000000
La	6.518429	6.518429	2.172812
O	6.518429	6.518429	0.000000
O	6.518429	4.345618	2.172812
O	4.345618	6.518429	2.172812
Cu	4.345618	4.345618	4.345618
La	6.518429	6.518429	6.518429
O	6.518429	6.518429	4.345618
O	6.518429	4.345618	6.518429
O	4.345618	6.518429	6.518429
