40

Cu	1.914360	1.914360	1.914360
La	0.000000	0.000000	0.000000
O	1.914360	1.914360	0.000000
O	0.000000	1.914360	1.914360
O	1.914360	0.000000	1.914360
Cu	1.914360	1.914360	5.743066
La	0.000000	0.000000	3.828706
O	1.914360	1.914360	3.828706
O	0.000000	1.914360	5.743066
O	1.914360	0.000000	5.743066
Cu	1.914360	5.743066	1.914360
La	0.000000	3.828706	0.000000
O	1.914360	5.743066	0.000000
O	0.000000	5.743066	1.914360
O	1.914360	3.828706	1.914360
Cu	1.914360	5.743066	5.743066
La	0.000000	3.828706	3.828706
O	1.914360	5.743066	3.828706
O	0.000000	5.743066	5.743066
O	1.914360	3.828706	5.743066
Cu	5.743066	1.914360	1.914360
La	3.828706	0.000000	0.000000
O	5.743066	1.914360	0.000000
O	3.828706	1.914360	1.914360
O	5.743066	0.000000	1.914360
Cu	5.743066	1.914360	5.743066
La	3.828706	0.000000	3.828706
O	5.743066	1.914360	3.828706
O	3.828706	1.914360	5.743066
O	5.743066	0.000000	5.743066
Cu	5.743066	5.743066	1.914360
La	3.828706	3.828706	0.000000
O	5.743066	5.743066	0.000000
O	3.828706	5.743066	1.914360
O	5.743066	3.828706	1.914360
Cu	5.743066	5.743066	5.743066
La	3.828706	3.828706	3.828706
O	5.743066	5.743066	3.828706
O	3.828706	5.743066	5.743066
O	5.743066	3.828706	5.743066
