40

O	1.957043	1.957043	0.000000
O	1.957043	0.000000	1.957043
O	0.000000	1.957043	1.957043
Pr	0.000000	0.000000	0.000000
Zn	1.957043	1.957043	1.957043
O	1.957043	1.957043	3.914086
O	1.957043	0.000000	5.871128
O	0.000000	1.957043	5.871128
Pr	0.000000	0.000000	3.914086
Zn	1.957043	1.957043	5.871128
O	1.957043	5.871128	0.000000
O	1.957043	3.914086	1.957043
O	0.000000	5.871128	1.957043
Pr	0.000000	3.914086	0.000000
Zn	1.957043	5.871128	1.957043
O	1.957043	5.871128	3.914086
O	1.957043	3.914086	5.871128
O	0.000000	5.871128	5.871128
Pr	0.000000	3.914086	3.914086
Zn	1.957043	5.871128	5.871128
O	5.871128	1.957043	0.000000
O	5.871128	0.000000	1.957043
O	3.914086	1.957043	1.957043
Pr	3.914086	0.000000	0.000000
Zn	5.871128	1.957043	1.957043
O	5.871128	1.957043	3.914086
O	5.871128	0.000000	5.871128
O	3.914086	1.957043	5.871128
Pr	3.914086	0.000000	3.914086
Zn	5.871128	1.957043	5.871128
O	5.871128	5.871128	0.000000
O	5.871128	3.914086	1.957043
O	3.914086	5.871128	1.957043
Pr	3.914086	3.914086	0.000000
Zn	5.871128	5.871128	1.957043
O	5.871128	5.871128	3.914086
O	5.871128	3.914086	5.871128
O	3.914086	5.871128	5.871128
Pr	3.914086	3.914086	3.914086
Zn	5.871128	5.871128	5.871128
