40

O	0.000000	1.862721	1.862721
O	1.862721	0.000000	1.862721
O	1.862721	1.862721	0.000000
Sc	0.000000	0.000000	0.000000
Zn	1.862721	1.862721	1.862721
O	0.000000	1.862721	5.588162
O	1.862721	0.000000	5.588162
O	1.862721	1.862721	3.725442
Sc	0.000000	0.000000	3.725442
Zn	1.862721	1.862721	5.588162
O	0.000000	5.588162	1.862721
O	1.862721	3.725442	1.862721
O	1.862721	5.588162	0.000000
Sc	0.000000	3.725442	0.000000
Zn	1.862721	5.588162	1.862721
O	0.000000	5.588162	5.588162
O	1.862721	3.725442	5.588162
O	1.862721	5.588162	3.725442
Sc	0.000000	3.725442	3.725442
Zn	1.862721	5.588162	5.588162
O	3.725442	1.862721	1.862721
O	5.588162	0.000000	1.862721
O	5.588162	1.862721	0.000000
Sc	3.725442	0.000000	0.000000
Zn	5.588162	1.862721	1.862721
O	3.725442	1.862721	5.588162
O	5.588162	0.000000	5.588162
O	5.588162	1.862721	3.725442
Sc	3.725442	0.000000	3.725442
Zn	5.588162	1.862721	5.588162
O	3.725442	5.588162	1.862721
O	5.588162	3.725442	1.862721
O	5.588162	5.588162	0.000000
Sc	3.725442	3.725442	0.000000
Zn	5.588162	5.588162	1.862721
O	3.725442	5.588162	5.588162
O	5.588162	3.725442	5.588162
O	5.588162	5.588162	3.725442
Sc	3.725442	3.725442	3.725442
Zn	5.588162	5.588162	5.588162
