40

O	0.000000	2.047484	2.047484
O	2.047484	0.000000	2.047484
O	2.047484	2.047484	0.000000
Sc	2.047484	2.047484	2.047484
Zn	0.000000	0.000000	0.000000
O	0.000000	2.047484	6.142453
O	2.047484	0.000000	6.142453
O	2.047484	2.047484	4.094969
Sc	2.047484	2.047484	6.142453
Zn	0.000000	0.000000	4.094969
O	0.000000	6.142453	2.047484
O	2.047484	4.094969	2.047484
O	2.047484	6.142453	0.000000
Sc	2.047484	6.142453	2.047484
Zn	0.000000	4.094969	0.000000
O	0.000000	6.142453	6.142453
O	2.047484	4.094969	6.142453
O	2.047484	6.142453	4.094969
Sc	2.047484	6.142453	6.142453
Zn	0.000000	4.094969	4.094969
O	4.094969	2.047484	2.047484
O	6.142453	0.000000	2.047484
O	6.142453	2.047484	0.000000
Sc	6.142453	2.047484	2.047484
Zn	4.094969	0.000000	0.000000
O	4.094969	2.047484	6.142453
O	6.142453	0.000000	6.142453
O	6.142453	2.047484	4.094969
Sc	6.142453	2.047484	6.142453
Zn	4.094969	0.000000	4.094969
O	4.094969	6.142453	2.047484
O	6.142453	4.094969	2.047484
O	6.142453	6.142453	0.000000
Sc	6.142453	6.142453	2.047484
Zn	4.094969	4.094969	0.000000
O	4.094969	6.142453	6.142453
O	6.142453	4.094969	6.142453
O	6.142453	6.142453	4.094969
Sc	6.142453	6.142453	6.142453
Zn	4.094969	4.094969	4.094969
