40

Na	0.000000	0.000000	0.000000
Nb	1.993967	1.993967	1.993967
O	0.000000	1.993967	1.993967
O	1.993967	0.000000	1.993967
O	1.993967	1.993967	0.000000
Na	0.000000	0.000000	3.987933
Nb	1.993967	1.993967	5.981900
O	0.000000	1.993967	5.981900
O	1.993967	0.000000	5.981900
O	1.993967	1.993967	3.987933
Na	0.000000	3.987933	0.000000
Nb	1.993967	5.981900	1.993967
O	0.000000	5.981900	1.993967
O	1.993967	3.987933	1.993967
O	1.993967	5.981900	0.000000
Na	0.000000	3.987933	3.987933
Nb	1.993967	5.981900	5.981900
O	0.000000	5.981900	5.981900
O	1.993967	3.987933	5.981900
O	1.993967	5.981900	3.987933
Na	3.987933	0.000000	0.000000
Nb	5.981900	1.993967	1.993967
O	3.987933	1.993967	1.993967
O	5.981900	0.000000	1.993967
O	5.981900	1.993967	0.000000
Na	3.987933	0.000000	3.987933
Nb	5.981900	1.993967	5.981900
O	3.987933	1.993967	5.981900
O	5.981900	0.000000	5.981900
O	5.981900	1.993967	3.987933
Na	3.987933	3.987933	0.000000
Nb	5.981900	5.981900	1.993967
O	3.987933	5.981900	1.993967
O	5.981900	3.987933	1.993967
O	5.981900	5.981900	0.000000
Na	3.987933	3.987933	3.987933
Nb	5.981900	5.981900	5.981900
O	3.987933	5.981900	5.981900
O	5.981900	3.987933	5.981900
O	5.981900	5.981900	3.987933
