40

Na	0.000000	0.000000	0.000000
Nb	1.964756	1.982031	1.990645
O	1.981564	1.982031	0.009131
O	1.964756	0.000000	1.990645
O	-0.016808	1.982031	1.981514
Na	-0.033616	0.000000	3.963028
Nb	1.931140	1.982031	5.953672
O	1.947948	1.982031	3.972158
O	1.931140	0.000000	5.953672
O	-0.050424	1.982031	5.944541
Na	0.000000	3.964061	0.000000
Nb	1.964756	5.946092	1.990645
O	1.981564	5.946092	0.009131
O	1.964756	3.964061	1.990645
O	-0.016808	5.946092	1.981514
Na	-0.033616	3.964061	3.963028
Nb	1.931140	5.946092	5.953672
O	1.947948	5.946092	3.972158
O	1.931140	3.964061	5.953672
O	-0.050424	5.946092	5.944541
Na	3.963128	0.000000	0.018262
Nb	5.927884	1.982031	2.008906
O	5.944692	1.982031	0.027393
O	5.927884	0.000000	2.008906
O	3.946320	1.982031	1.999775
Na	3.929512	0.000000	3.981289
Nb	5.894269	1.982031	5.971934
O	5.911077	1.982031	3.990420
O	5.894269	0.000000	5.971934
O	3.912705	1.982031	5.962803
Na	3.963128	3.964061	0.018262
Nb	5.927884	5.946092	2.008906
O	5.944692	5.946092	0.027393
O	5.927884	3.964061	2.008906
O	3.946320	5.946092	1.999775
Na	3.929512	3.964061	3.981289
Nb	5.894269	5.946092	5.971934
O	5.911077	5.946092	3.990420
O	5.894269	3.964061	5.971934
O	3.912705	5.946092	5.962803
