40

Na	0.000000	0.000000	0.000000
Nb	2.005842	2.005842	2.005842
O	2.005842	2.005842	0.000000
O	2.005842	0.000000	2.005842
O	0.000000	2.005842	2.005842
Na	0.000000	0.000000	4.011683
Nb	2.005842	2.005842	6.017525
O	2.005842	2.005842	4.011683
O	2.005842	0.000000	6.017525
O	0.000000	2.005842	6.017525
Na	0.000000	4.011683	0.000000
Nb	2.005842	6.017525	2.005842
O	2.005842	6.017525	0.000000
O	2.005842	4.011683	2.005842
O	0.000000	6.017525	2.005842
Na	0.000000	4.011683	4.011683
Nb	2.005842	6.017525	6.017525
O	2.005842	6.017525	4.011683
O	2.005842	4.011683	6.017525
O	0.000000	6.017525	6.017525
Na	4.011683	0.000000	0.000000
Nb	6.017525	2.005842	2.005842
O	6.017525	2.005842	0.000000
O	6.017525	0.000000	2.005842
O	4.011683	2.005842	2.005842
Na	4.011683	0.000000	4.011683
Nb	6.017525	2.005842	6.017525
O	6.017525	2.005842	4.011683
O	6.017525	0.000000	6.017525
O	4.011683	2.005842	6.017525
Na	4.011683	4.011683	0.000000
Nb	6.017525	6.017525	2.005842
O	6.017525	6.017525	0.000000
O	6.017525	4.011683	2.005842
O	4.011683	6.017525	2.005842
Na	4.011683	4.011683	4.011683
Nb	6.017525	6.017525	6.017525
O	6.017525	6.017525	4.011683
O	6.017525	4.011683	6.017525
O	4.011683	6.017525	6.017525
