40

Na	0.000000	0.000000	0.000000
Nb	1.971715	1.971715	1.971715
O	1.971715	1.971715	0.000000
O	0.000000	1.971715	1.971715
O	1.971715	0.000000	1.971715
Na	0.000000	0.000000	3.943429
Nb	1.971715	1.971715	5.915144
O	1.971715	1.971715	3.943429
O	0.000000	1.971715	5.915144
O	1.971715	0.000000	5.915144
Na	0.000000	3.943429	0.000000
Nb	1.971715	5.915144	1.971715
O	1.971715	5.915144	0.000000
O	0.000000	5.915144	1.971715
O	1.971715	3.943429	1.971715
Na	0.000000	3.943429	3.943429
Nb	1.971715	5.915144	5.915144
O	1.971715	5.915144	3.943429
O	0.000000	5.915144	5.915144
O	1.971715	3.943429	5.915144
Na	3.943429	0.000000	0.000000
Nb	5.915144	1.971715	1.971715
O	5.915144	1.971715	0.000000
O	3.943429	1.971715	1.971715
O	5.915144	0.000000	1.971715
Na	3.943429	0.000000	3.943429
Nb	5.915144	1.971715	5.915144
O	5.915144	1.971715	3.943429
O	3.943429	1.971715	5.915144
O	5.915144	0.000000	5.915144
Na	3.943429	3.943429	0.000000
Nb	5.915144	5.915144	1.971715
O	5.915144	5.915144	0.000000
O	3.943429	5.915144	1.971715
O	5.915144	3.943429	1.971715
Na	3.943429	3.943429	3.943429
Nb	5.915144	5.915144	5.915144
O	5.915144	5.915144	3.943429
O	3.943429	5.915144	5.915144
O	5.915144	3.943429	5.915144
