112

Ba	0.000000	0.000000	0.000000
Ba	2.832776	-2.833469	-2.833469
O	4.204533	-1.460684	-1.460684
O	-1.461019	1.460684	-4.206254
O	1.461019	-1.460684	-4.206254
O	1.371757	1.372785	-1.372785
O	7.126571	1.460684	-1.460684
O	1.371757	4.294153	-4.294153
O	4.293795	4.294153	-1.372785
O	4.293795	1.372785	-4.294153
Rb	-1.416388	-1.416735	-4.250204
Rb	4.249164	1.416735	-1.416735
Rb	7.081940	-1.416735	-1.416735
Rb	1.416388	1.416735	-4.250204
Ba	5.665552	5.666938	0.000000
Ba	8.498328	2.833469	-2.833469
O	9.870085	4.206254	-1.460684
O	4.204533	7.127623	-4.206254
O	7.126571	4.206254	-4.206254
O	7.037309	7.039723	-1.372785
O	12.792123	7.127623	-1.460684
O	7.037309	9.961092	-4.294153
O	9.959347	9.961092	-1.372785
O	9.959347	7.039723	-4.294153
Rb	4.249164	4.250204	-4.250204
Rb	9.914716	7.083673	-1.416735
Rb	12.747492	4.250204	-1.416735
Rb	7.081940	7.083673	-4.250204
Ba	-5.665552	0.000000	-5.666938
Ba	-2.832776	-2.833469	-8.500407
O	-1.461019	-1.460684	-7.127623
O	-7.126571	1.460684	-9.873192
O	-4.204533	-1.460684	-9.873192
O	-4.293795	1.372785	-7.039723
O	1.461019	1.460684	-7.127623
O	-4.293795	4.294153	-9.961092
O	-1.371757	4.294153	-7.039723
O	-1.371757	1.372785	-9.961092
Rb	-7.081940	-1.416735	-9.917142
Rb	-1.416388	1.416735	-7.083673
Rb	1.416388	-1.416735	-7.083673
Rb	-4.249164	1.416735	-9.917142
Ba	0.000000	5.666938	-5.666938
Ba	2.832776	2.833469	-8.500407
O	4.204533	4.206254	-7.127623
O	-1.461019	7.127623	-9.873192
O	1.461019	4.206254	-9.873192
O	1.371757	7.039723	-7.039723
O	7.126571	7.127623	-7.127623
O	1.371757	9.961092	-9.961092
O	4.293795	9.961092	-7.039723
O	4.293795	7.039723	-9.961092
Rb	-1.416388	4.250204	-9.917142
Rb	4.249164	7.083673	-7.083673
Rb	7.081940	4.250204	-7.083673
Rb	1.416388	7.083673	-9.917142
Ba	5.665552	-5.666938	0.000000
Ba	8.498328	-8.500407	-2.833469
O	9.870085	-7.127623	-1.460684
O	4.204533	-4.206254	-4.206254
O	7.126571	-7.127623	-4.206254
O	7.037309	-4.294153	-1.372785
O	12.792123	-4.206254	-1.460684
O	7.037309	-1.372785	-4.294153
O	9.959347	-1.372785	-1.372785
O	9.959347	-4.294153	-4.294153
Rb	4.249164	-7.083673	-4.250204
Rb	9.914716	-4.250204	-1.416735
Rb	12.747492	-7.083673	-1.416735
Rb	7.081940	-4.250204	-4.250204
Ba	11.331104	0.000000	0.000000
Ba	14.163880	-2.833469	-2.833469
O	15.535638	-1.460684	-1.460684
O	9.870085	1.460684	-4.206254
O	12.792123	-1.460684	-4.206254
O	12.702862	1.372785	-1.372785
O	18.457675	1.460684	-1.460684
O	12.702861	4.294153	-4.294153
O	15.624899	4.294153	-1.372785
O	15.624899	1.372785	-4.294153
Rb	9.914716	-1.416735	-4.250204
Rb	15.580268	1.416735	-1.416735
Rb	18.413045	-1.416735	-1.416735
Rb	12.747492	1.416735	-4.250204
Ba	0.000000	-5.666938	-5.666938
Ba	2.832776	-8.500407	-8.500407
O	4.204533	-7.127623	-7.127623
O	-1.461019	-4.206254	-9.873192
O	1.461019	-7.127623	-9.873192
O	1.371757	-4.294153	-7.039723
O	7.126571	-4.206254	-7.127623
O	1.371757	-1.372785	-9.961092
O	4.293795	-1.372785	-7.039723
O	4.293795	-4.294153	-9.961092
Rb	-1.416388	-7.083673	-9.917142
Rb	4.249164	-4.250204	-7.083673
Rb	7.081940	-7.083673	-7.083673
Rb	1.416388	-4.250204	-9.917142
Ba	5.665552	0.000000	-5.666938
Ba	8.498328	-2.833469	-8.500407
O	9.870085	-1.460684	-7.127623
O	4.204533	1.460684	-9.873192
O	7.126571	-1.460684	-9.873192
O	7.037309	1.372785	-7.039723
O	12.792123	1.460684	-7.127623
O	7.037309	4.294153	-9.961092
O	9.959347	4.294153	-7.039723
O	9.959347	1.372785	-9.961092
Rb	4.249164	-1.416735	-9.917142
Rb	9.914716	1.416735	-7.083673
Rb	12.747492	-1.416735	-7.083673
Rb	7.081940	1.416735	-9.917142
