40

B	0.000000	0.000000	0.000000
O	2.120485	2.120485	0.000000
O	2.120485	0.000000	2.120485
O	0.000000	2.120485	2.120485
Tl	2.120485	2.120485	2.120485
B	0.000000	0.000000	4.240970
O	2.120485	2.120485	4.240970
O	2.120485	0.000000	6.361455
O	0.000000	2.120485	6.361455
Tl	2.120485	2.120485	6.361455
B	0.000000	4.240970	0.000000
O	2.120485	6.361455	0.000000
O	2.120485	4.240970	2.120485
O	0.000000	6.361455	2.120485
Tl	2.120485	6.361455	2.120485
B	0.000000	4.240970	4.240970
O	2.120485	6.361455	4.240970
O	2.120485	4.240970	6.361455
O	0.000000	6.361455	6.361455
Tl	2.120485	6.361455	6.361455
B	4.240970	0.000000	0.000000
O	6.361455	2.120485	0.000000
O	6.361455	0.000000	2.120485
O	4.240970	2.120485	2.120485
Tl	6.361455	2.120485	2.120485
B	4.240970	0.000000	4.240970
O	6.361455	2.120485	4.240970
O	6.361455	0.000000	6.361455
O	4.240970	2.120485	6.361455
Tl	6.361455	2.120485	6.361455
B	4.240970	4.240970	0.000000
O	6.361455	6.361455	0.000000
O	6.361455	4.240970	2.120485
O	4.240970	6.361455	2.120485
Tl	6.361455	6.361455	2.120485
B	4.240970	4.240970	4.240970
O	6.361455	6.361455	4.240970
O	6.361455	4.240970	6.361455
O	4.240970	6.361455	6.361455
Tl	6.361455	6.361455	6.361455
