40

O	0.000000	1.915060	1.915060
O	1.915060	0.000000	1.915060
O	1.915060	1.915060	0.000000
V	1.915060	1.915060	1.915060
W	0.000000	0.000000	0.000000
O	0.000000	1.915060	5.745180
O	1.915060	0.000000	5.745180
O	1.915060	1.915060	3.830120
V	1.915060	1.915060	5.745180
W	0.000000	0.000000	3.830120
O	0.000000	5.745180	1.915060
O	1.915060	3.830120	1.915060
O	1.915060	5.745180	0.000000
V	1.915060	5.745180	1.915060
W	0.000000	3.830120	0.000000
O	0.000000	5.745180	5.745180
O	1.915060	3.830120	5.745180
O	1.915060	5.745180	3.830120
V	1.915060	5.745180	5.745180
W	0.000000	3.830120	3.830120
O	3.830120	1.915060	1.915060
O	5.745180	0.000000	1.915060
O	5.745180	1.915060	0.000000
V	5.745180	1.915060	1.915060
W	3.830120	0.000000	0.000000
O	3.830120	1.915060	5.745180
O	5.745180	0.000000	5.745180
O	5.745180	1.915060	3.830120
V	5.745180	1.915060	5.745180
W	3.830120	0.000000	3.830120
O	3.830120	5.745180	1.915060
O	5.745180	3.830120	1.915060
O	5.745180	5.745180	0.000000
V	5.745180	5.745180	1.915060
W	3.830120	3.830120	0.000000
O	3.830120	5.745180	5.745180
O	5.745180	3.830120	5.745180
O	5.745180	5.745180	3.830120
V	5.745180	5.745180	5.745180
W	3.830120	3.830120	3.830120
