40

O	1.937180	1.937180	0.000000
O	0.000000	1.937180	1.937180
O	1.937180	0.000000	1.937180
Tb_3	0.000000	0.000000	0.000000
Ti	1.937180	1.937180	1.937180
O	1.937180	1.937180	3.874360
O	0.000000	1.937180	5.811540
O	1.937180	0.000000	5.811540
Tb_3	0.000000	0.000000	3.874360
Ti	1.937180	1.937180	5.811540
O	1.937180	5.811540	0.000000
O	0.000000	5.811540	1.937180
O	1.937180	3.874360	1.937180
Tb_3	0.000000	3.874360	0.000000
Ti	1.937180	5.811540	1.937180
O	1.937180	5.811540	3.874360
O	0.000000	5.811540	5.811540
O	1.937180	3.874360	5.811540
Tb_3	0.000000	3.874360	3.874360
Ti	1.937180	5.811540	5.811540
O	5.811540	1.937180	0.000000
O	3.874360	1.937180	1.937180
O	5.811540	0.000000	1.937180
Tb_3	3.874360	0.000000	0.000000
Ti	5.811540	1.937180	1.937180
O	5.811540	1.937180	3.874360
O	3.874360	1.937180	5.811540
O	5.811540	0.000000	5.811540
Tb_3	3.874360	0.000000	3.874360
Ti	5.811540	1.937180	5.811540
O	5.811540	5.811540	0.000000
O	3.874360	5.811540	1.937180
O	5.811540	3.874360	1.937180
Tb_3	3.874360	3.874360	0.000000
Ti	5.811540	5.811540	1.937180
O	5.811540	5.811540	3.874360
O	3.874360	5.811540	5.811540
O	5.811540	3.874360	5.811540
Tb_3	3.874360	3.874360	3.874360
Ti	5.811540	5.811540	5.811540
