40

Na	0.000001	0.000000	-0.000001
Cd	2.128031	2.129309	2.127628
O	2.128033	2.129303	0.000004
O	2.128042	4.258604	2.127632
O	0.000007	2.129304	2.127626
Na	0.000006	0.000004	4.255247
Cd	2.128037	2.129312	6.382875
O	2.128039	2.129306	4.255251
O	2.128048	4.258607	6.382880
O	0.000013	2.129307	6.382874
Na	0.000007	4.258602	0.000003
Cd	2.128038	6.387910	2.127631
O	2.128039	6.387904	0.000007
O	2.128049	8.517205	2.127636
O	0.000013	6.387905	2.127630
Na	0.000013	4.258605	4.255251
Cd	2.128044	6.387914	6.382879
O	2.128045	6.387908	4.255255
O	2.128054	8.517209	6.382883
O	0.000019	6.387909	6.382878
Na	4.256060	0.000006	0.000005
Cd	6.384091	2.129315	2.127634
O	6.384092	2.129309	0.000009
O	6.384102	4.258610	2.127638
O	4.256066	2.129310	2.127632
Na	4.256066	0.000010	4.255253
Cd	6.384097	2.129318	6.382881
O	6.384098	2.129312	4.255257
O	6.384108	4.258614	6.382886
O	4.256072	2.129314	6.382880
Na	4.256066	4.258608	0.000009
Cd	6.384097	6.387916	2.127637
O	6.384099	6.387910	0.000013
O	6.384108	8.517212	2.127641
O	4.256073	6.387912	2.127636
Na	4.256072	4.258611	4.255256
Cd	6.384103	6.387920	6.382885
O	6.384104	6.387914	4.255261
O	6.384114	8.517215	6.382889
O	4.256079	6.387915	6.382884
