112

O	4.037704	-1.003676	-1.003676
O	-1.003749	1.003676	-4.040017
O	1.003749	-1.003676	-4.040017
O	1.516977	1.518166	-1.518166
O	6.045212	1.003676	-1.003676
O	1.516977	3.525517	-3.525517
O	3.524476	3.525517	-1.518166
O	3.524476	1.518166	-3.525517
Rb	0.000000	0.000000	0.000000
Rb	2.520727	-2.521841	-2.521841
Te	-1.260368	-1.260926	-3.782767
Te	6.301821	-1.260926	-1.260926
Te	3.781095	1.260926	-1.260926
Te	1.260368	1.260926	-3.782767
O	9.079161	4.040009	-1.003676
O	4.037708	6.047360	-4.040017
O	6.045207	4.040009	-4.040017
O	6.558435	6.561850	-1.518166
O	11.086670	6.047360	-1.003676
O	6.558435	8.569201	-3.525517
O	8.565933	8.569201	-1.518166
O	8.565933	6.561850	-3.525517
Rb	5.041457	5.043684	0.000000
Rb	7.562184	2.521843	-2.521841
Te	3.781089	3.782759	-3.782767
Te	11.343279	3.782759	-1.260926
Te	8.822552	6.304610	-1.260926
Te	6.301826	6.304610	-3.782767
O	-1.003754	-1.003676	-6.047360
O	-6.045207	1.003676	-9.083701
O	-4.037708	-1.003676	-9.083701
O	-3.524480	1.518166	-6.561850
O	1.003755	1.003676	-6.047360
O	-3.524480	3.525517	-8.569201
O	-1.516982	3.525517	-6.561850
O	-1.516982	1.518166	-8.569201
Rb	-5.041457	0.000000	-5.043684
Rb	-2.520731	-2.521841	-7.565525
Te	-6.301826	-1.260926	-8.826451
Te	1.260364	-1.260926	-6.304610
Te	-1.260363	1.260926	-6.304610
Te	-3.781089	1.260926	-8.826451
O	4.037704	4.040009	-6.047360
O	-1.003749	6.047360	-9.083701
O	1.003749	4.040009	-9.083701
O	1.516977	6.561850	-6.561850
O	6.045212	6.047360	-6.047360
O	1.516977	8.569201	-8.569201
O	3.524476	8.569201	-6.561850
O	3.524476	6.561850	-8.569201
Rb	0.000000	5.043684	-5.043684
Rb	2.520727	2.521843	-7.565525
Te	-1.260368	3.782759	-8.826451
Te	6.301821	3.782759	-6.304610
Te	3.781095	6.304610	-6.304610
Te	1.260368	6.304610	-8.826451
O	9.079161	-6.047360	-1.003676
O	4.037708	-4.040009	-4.040017
O	6.045207	-6.047360	-4.040017
O	6.558435	-3.525519	-1.518166
O	11.086670	-4.040009	-1.003676
O	6.558435	-1.518168	-3.525517
O	8.565933	-1.518168	-1.518166
O	8.565933	-3.525519	-3.525517
Rb	5.041457	-5.043684	0.000000
Rb	7.562184	-7.565525	-2.521841
Te	3.781089	-6.304610	-3.782767
Te	11.343279	-6.304610	-1.260926
Te	8.822552	-3.782759	-1.260926
Te	6.301826	-3.782759	-3.782767
O	14.120619	-1.003676	-1.003676
O	9.079165	1.003676	-4.040017
O	11.086664	-1.003676	-4.040017
O	11.599892	1.518166	-1.518166
O	16.128127	1.003676	-1.003676
O	11.599892	3.525517	-3.525517
O	13.607391	3.525517	-1.518166
O	13.607391	1.518166	-3.525517
Rb	10.082915	0.000000	0.000000
Rb	12.603641	-2.521841	-2.521841
Te	8.822547	-1.260926	-3.782767
Te	16.384736	-1.260926	-1.260926
Te	13.864010	1.260926	-1.260926
Te	11.343283	1.260926	-3.782767
O	4.037704	-6.047360	-6.047360
O	-1.003749	-4.040009	-9.083701
O	1.003749	-6.047360	-9.083701
O	1.516977	-3.525519	-6.561850
O	6.045212	-4.040009	-6.047360
O	1.516977	-1.518168	-8.569201
O	3.524476	-1.518168	-6.561850
O	3.524476	-3.525519	-8.569201
Rb	0.000000	-5.043684	-5.043684
Rb	2.520727	-7.565525	-7.565525
Te	-1.260368	-6.304610	-8.826451
Te	6.301821	-6.304610	-6.304610
Te	3.781095	-3.782759	-6.304610
Te	1.260368	-3.782759	-8.826451
O	9.079161	-1.003676	-6.047360
O	4.037708	1.003676	-9.083701
O	6.045207	-1.003676	-9.083701
O	6.558435	1.518166	-6.561850
O	11.086670	1.003676	-6.047360
O	6.558435	3.525517	-8.569201
O	8.565933	3.525517	-6.561850
O	8.565933	1.518166	-8.569201
Rb	5.041457	0.000000	-5.043684
Rb	7.562184	-2.521841	-7.565525
Te	3.781089	-1.260926	-8.826451
Te	11.343279	-1.260926	-6.304610
Te	8.822552	1.260926	-6.304610
Te	6.301826	1.260926	-8.826451
