40

Cu	0.000000	0.000000	0.000000
O	0.000000	1.906480	1.906480
O	1.906480	0.000000	1.906480
O	1.906480	1.906480	0.000000
Se	1.906480	1.906480	1.906480
Cu	0.000000	0.000000	3.812960
O	0.000000	1.906480	5.719440
O	1.906480	0.000000	5.719440
O	1.906480	1.906480	3.812960
Se	1.906480	1.906480	5.719440
Cu	0.000000	3.812960	0.000000
O	0.000000	5.719440	1.906480
O	1.906480	3.812960	1.906480
O	1.906480	5.719440	0.000000
Se	1.906480	5.719440	1.906480
Cu	0.000000	3.812960	3.812960
O	0.000000	5.719440	5.719440
O	1.906480	3.812960	5.719440
O	1.906480	5.719440	3.812960
Se	1.906480	5.719440	5.719440
Cu	3.812960	0.000000	0.000000
O	3.812960	1.906480	1.906480
O	5.719440	0.000000	1.906480
O	5.719440	1.906480	0.000000
Se	5.719440	1.906480	1.906480
Cu	3.812960	0.000000	3.812960
O	3.812960	1.906480	5.719440
O	5.719440	0.000000	5.719440
O	5.719440	1.906480	3.812960
Se	5.719440	1.906480	5.719440
Cu	3.812960	3.812960	0.000000
O	3.812960	5.719440	1.906480
O	5.719440	3.812960	1.906480
O	5.719440	5.719440	0.000000
Se	5.719440	5.719440	1.906480
Cu	3.812960	3.812960	3.812960
O	3.812960	5.719440	5.719440
O	5.719440	3.812960	5.719440
O	5.719440	5.719440	3.812960
Se	5.719440	5.719440	5.719440
