112

Np	0.000000	0.000000	0.000000
Np	2.344867	-2.345734	-2.345734
O	3.630724	-1.058835	-1.058835
O	-1.059010	1.058835	-3.632633
O	1.059010	-1.058835	-3.632633
O	1.285857	1.286899	-1.286899
O	5.748743	1.058835	-1.058835
O	1.285857	3.404569	-3.404569
O	3.403877	3.404569	-1.286899
O	3.403877	1.286899	-3.404569
Zr	-1.172433	-1.172867	-3.518601
Zr	3.517300	1.172867	-1.172867
Zr	5.862167	-1.172867	-1.172867
Zr	1.172433	1.172867	-3.518601
Np	4.689733	4.691468	0.000000
Np	7.034600	2.345734	-2.345734
O	8.320457	3.632633	-1.058835
O	3.630724	5.750304	-3.632633
O	5.748743	3.632633	-3.632633
O	5.975590	5.978367	-1.286899
O	10.438477	5.750304	-1.058835
O	5.975590	8.096037	-3.404569
O	8.093610	8.096037	-1.286899
O	8.093610	5.978367	-3.404569
Zr	3.517300	3.518601	-3.518601
Zr	8.207034	5.864335	-1.172867
Zr	10.551900	3.518601	-1.172867
Zr	5.862167	5.864335	-3.518601
Np	-4.689733	0.000000	-4.691468
Np	-2.344867	-2.345734	-7.037202
O	-1.059010	-1.058835	-5.750303
O	-5.748743	1.058835	-8.324101
O	-3.630724	-1.058835	-8.324101
O	-3.403877	1.286899	-5.978367
O	1.059010	1.058835	-5.750303
O	-3.403877	3.404569	-8.096037
O	-1.285857	3.404569	-5.978367
O	-1.285857	1.286899	-8.096037
Zr	-5.862167	-1.172867	-8.210069
Zr	-1.172433	1.172867	-5.864335
Zr	1.172433	-1.172867	-5.864335
Zr	-3.517300	1.172867	-8.210069
Np	0.000000	4.691468	-4.691468
Np	2.344867	2.345734	-7.037202
O	3.630724	3.632633	-5.750303
O	-1.059010	5.750304	-8.324101
O	1.059010	3.632633	-8.324101
O	1.285857	5.978367	-5.978367
O	5.748743	5.750304	-5.750303
O	1.285857	8.096037	-8.096037
O	3.403877	8.096037	-5.978367
O	3.403877	5.978367	-8.096037
Zr	-1.172433	3.518601	-8.210069
Zr	3.517300	5.864335	-5.864335
Zr	5.862167	3.518601	-5.864335
Zr	1.172433	5.864335	-8.210069
Np	4.689733	-4.691468	0.000000
Np	7.034600	-7.037202	-2.345734
O	8.320457	-5.750303	-1.058835
O	3.630724	-3.632633	-3.632633
O	5.748743	-5.750303	-3.632633
O	5.975590	-3.404569	-1.286899
O	10.438477	-3.632633	-1.058835
O	5.975590	-1.286899	-3.404569
O	8.093610	-1.286899	-1.286899
O	8.093610	-3.404569	-3.404569
Zr	3.517300	-5.864335	-3.518601
Zr	8.207034	-3.518601	-1.172867
Zr	10.551900	-5.864335	-1.172867
Zr	5.862167	-3.518601	-3.518601
Np	9.379467	0.000000	0.000000
Np	11.724334	-2.345734	-2.345734
O	13.010191	-1.058835	-1.058835
O	8.320457	1.058835	-3.632633
O	10.438477	-1.058835	-3.632633
O	10.665324	1.286899	-1.286899
O	15.128210	1.058835	-1.058835
O	10.665324	3.404569	-3.404569
O	12.783344	3.404569	-1.286899
O	12.783344	1.286899	-3.404569
Zr	8.207034	-1.172867	-3.518601
Zr	12.896767	1.172867	-1.172867
Zr	15.241634	-1.172867	-1.172867
Zr	10.551900	1.172867	-3.518601
Np	0.000000	-4.691468	-4.691468
Np	2.344867	-7.037202	-7.037202
O	3.630724	-5.750303	-5.750303
O	-1.059010	-3.632633	-8.324101
O	1.059010	-5.750303	-8.324101
O	1.285857	-3.404569	-5.978367
O	5.748743	-3.632633	-5.750303
O	1.285857	-1.286899	-8.096037
O	3.403877	-1.286899	-5.978367
O	3.403877	-3.404569	-8.096037
Zr	-1.172433	-5.864335	-8.210069
Zr	3.517300	-3.518601	-5.864335
Zr	5.862167	-5.864335	-5.864335
Zr	1.172433	-3.518601	-8.210069
Np	4.689733	0.000000	-4.691468
Np	7.034600	-2.345734	-7.037202
O	8.320457	-1.058835	-5.750303
O	3.630724	1.058835	-8.324101
O	5.748743	-1.058835	-8.324101
O	5.975590	1.286899	-5.978367
O	10.438477	1.058835	-5.750303
O	5.975590	3.404569	-8.096037
O	8.093610	3.404569	-5.978367
O	8.093610	1.286899	-8.096037
Zr	3.517300	-1.172867	-8.210069
Zr	8.207034	1.172867	-5.864335
Zr	10.551900	-1.172867	-5.864335
Zr	5.862167	1.172867	-8.210069
