40

Na	2.004870	2.004870	2.004870
O	2.004870	2.004870	0.000000
O	2.004870	0.000000	2.004870
O	0.000000	2.004870	2.004870
Sn	0.000000	0.000000	0.000000
Na	2.004870	2.004870	6.014604
O	2.004870	2.004870	4.009735
O	2.004870	0.000000	6.014604
O	0.000000	2.004870	6.014604
Sn	0.000000	0.000000	4.009735
Na	2.004870	6.014604	2.004870
O	2.004870	6.014604	0.000000
O	2.004870	4.009735	2.004870
O	0.000000	6.014604	2.004870
Sn	0.000000	4.009735	0.000000
Na	2.004870	6.014604	6.014604
O	2.004870	6.014604	4.009735
O	2.004870	4.009735	6.014604
O	0.000000	6.014604	6.014604
Sn	0.000000	4.009735	4.009735
Na	6.014604	2.004870	2.004870
O	6.014604	2.004870	0.000000
O	6.014604	0.000000	2.004870
O	4.009735	2.004870	2.004870
Sn	4.009735	0.000000	0.000000
Na	6.014604	2.004870	6.014604
O	6.014604	2.004870	4.009735
O	6.014604	0.000000	6.014604
O	4.009735	2.004870	6.014604
Sn	4.009735	0.000000	4.009735
Na	6.014604	6.014604	2.004870
O	6.014604	6.014604	0.000000
O	6.014604	4.009735	2.004870
O	4.009735	6.014604	2.004870
Sn	4.009735	4.009735	0.000000
Na	6.014604	6.014604	6.014604
O	6.014604	6.014604	4.009735
O	6.014604	4.009735	6.014604
O	4.009735	6.014604	6.014604
Sn	4.009735	4.009735	4.009735
