112

Ge	0.000000	0.000000	0.000000
Ge	2.239013	-2.240107	-2.240107
O	3.439145	-1.039034	-1.039034
O	-1.038882	1.039033	-3.441181
O	1.038882	-1.039034	-3.441181
O	1.200132	1.201074	-1.201074
O	5.516908	1.039033	-1.039034
O	1.200132	3.279141	-3.279141
O	3.277895	3.279141	-1.201074
O	3.277895	1.201074	-3.279141
Ta	-1.119507	-1.120054	-3.360161
Ta	3.358520	1.120054	-1.120054
Ta	5.597533	-1.120054	-1.120054
Ta	1.119507	1.120054	-3.360161
Ge	4.478026	4.480214	0.000000
Ge	6.717040	2.240107	-2.240107
O	7.917171	3.441181	-1.039034
O	3.439145	5.519248	-3.441181
O	5.516908	3.441181	-3.441181
O	5.678158	5.681288	-1.201074
O	9.994935	5.519248	-1.039034
O	5.678158	7.759355	-3.279141
O	7.755921	7.759355	-1.201074
O	7.755921	5.681288	-3.279141
Ta	3.358520	3.360161	-3.360161
Ta	7.836546	5.600268	-1.120054
Ta	10.075560	3.360161	-1.120054
Ta	5.597533	5.600268	-3.360161
Ge	-4.478026	0.000000	-4.480214
Ge	-2.239013	-2.240107	-6.720322
O	-1.038882	-1.039034	-5.519248
O	-5.516908	1.039033	-7.921395
O	-3.439145	-1.039034	-7.921395
O	-3.277895	1.201074	-5.681288
O	1.038882	1.039033	-5.519248
O	-3.277895	3.279141	-7.759355
O	-1.200132	3.279141	-5.681288
O	-1.200132	1.201074	-7.759355
Ta	-5.597533	-1.120054	-7.840375
Ta	-1.119507	1.120054	-5.600268
Ta	1.119507	-1.120054	-5.600268
Ta	-3.358520	1.120054	-7.840375
Ge	0.000000	4.480214	-4.480214
Ge	2.239013	2.240107	-6.720322
O	3.439145	3.441181	-5.519248
O	-1.038882	5.519248	-7.921395
O	1.038882	3.441181	-7.921395
O	1.200132	5.681288	-5.681288
O	5.516908	5.519248	-5.519248
O	1.200132	7.759355	-7.759355
O	3.277895	7.759355	-5.681288
O	3.277895	5.681288	-7.759355
Ta	-1.119507	3.360161	-7.840375
Ta	3.358520	5.600268	-5.600268
Ta	5.597533	3.360161	-5.600268
Ta	1.119507	5.600268	-7.840375
Ge	4.478026	-4.480214	0.000000
Ge	6.717040	-6.720322	-2.240107
O	7.917171	-5.519248	-1.039034
O	3.439145	-3.441181	-3.441181
O	5.516908	-5.519248	-3.441181
O	5.678158	-3.279141	-1.201074
O	9.994935	-3.441181	-1.039034
O	5.678158	-1.201074	-3.279141
O	7.755921	-1.201074	-1.201074
O	7.755921	-3.279141	-3.279141
Ta	3.358520	-5.600268	-3.360161
Ta	7.836546	-3.360161	-1.120054
Ta	10.075560	-5.600268	-1.120054
Ta	5.597533	-3.360161	-3.360161
Ge	8.956053	0.000000	0.000000
Ge	11.195066	-2.240107	-2.240107
O	12.395198	-1.039034	-1.039034
O	7.917171	1.039033	-3.441181
O	9.994935	-1.039034	-3.441181
O	10.156185	1.201074	-1.201074
O	14.472961	1.039033	-1.039034
O	10.156185	3.279141	-3.279141
O	12.233948	3.279141	-1.201074
O	12.233948	1.201074	-3.279141
Ta	7.836546	-1.120054	-3.360161
Ta	12.314573	1.120054	-1.120054
Ta	14.553586	-1.120054	-1.120054
Ta	10.075560	1.120054	-3.360161
Ge	0.000000	-4.480214	-4.480214
Ge	2.239013	-6.720322	-6.720322
O	3.439145	-5.519248	-5.519248
O	-1.038882	-3.441181	-7.921395
O	1.038882	-5.519248	-7.921395
O	1.200132	-3.279141	-5.681288
O	5.516908	-3.441181	-5.519248
O	1.200132	-1.201074	-7.759355
O	3.277895	-1.201074	-5.681288
O	3.277895	-3.279141	-7.759355
Ta	-1.119507	-5.600268	-7.840375
Ta	3.358520	-3.360161	-5.600268
Ta	5.597533	-5.600268	-5.600268
Ta	1.119507	-3.360161	-7.840375
Ge	4.478026	0.000000	-4.480214
Ge	6.717040	-2.240107	-6.720322
O	7.917171	-1.039034	-5.519248
O	3.439145	1.039033	-7.921395
O	5.516908	-1.039034	-7.921395
O	5.678158	1.201074	-5.681288
O	9.994935	1.039033	-5.519248
O	5.678158	3.279141	-7.759355
O	7.755921	3.279141	-5.681288
O	7.755921	1.201074	-7.759355
Ta	3.358520	-1.120054	-7.840375
Ta	7.836546	1.120054	-5.600268
Ta	10.075560	-1.120054	-5.600268
Ta	5.597533	1.120054	-7.840375
