40

O	2.013380	0.000000	2.013380
O	0.000000	2.013380	2.013380
O	2.013380	2.013380	0.000000
Pt	2.013380	2.013380	2.013380
Te	0.000000	0.000000	0.000000
O	2.013380	0.000000	6.040135
O	0.000000	2.013380	6.040135
O	2.013380	2.013380	4.026755
Pt	2.013380	2.013380	6.040135
Te	0.000000	0.000000	4.026755
O	2.013380	4.026755	2.013380
O	0.000000	6.040135	2.013380
O	2.013380	6.040135	0.000000
Pt	2.013380	6.040135	2.013380
Te	0.000000	4.026755	0.000000
O	2.013380	4.026755	6.040135
O	0.000000	6.040135	6.040135
O	2.013380	6.040135	4.026755
Pt	2.013380	6.040135	6.040135
Te	0.000000	4.026755	4.026755
O	6.040135	0.000000	2.013380
O	4.026755	2.013380	2.013380
O	6.040135	2.013380	0.000000
Pt	6.040135	2.013380	2.013380
Te	4.026755	0.000000	0.000000
O	6.040135	0.000000	6.040135
O	4.026755	2.013380	6.040135
O	6.040135	2.013380	4.026755
Pt	6.040135	2.013380	6.040135
Te	4.026755	0.000000	4.026755
O	6.040135	4.026755	2.013380
O	4.026755	6.040135	2.013380
O	6.040135	6.040135	0.000000
Pt	6.040135	6.040135	2.013380
Te	4.026755	4.026755	0.000000
O	6.040135	4.026755	6.040135
O	4.026755	6.040135	6.040135
O	6.040135	6.040135	4.026755
Pt	6.040135	6.040135	6.040135
Te	4.026755	4.026755	4.026755
