40

La	0.000000	0.000000	0.000000
O	1.962073	1.962073	0.000000
O	0.000000	1.962073	1.962073
O	1.962073	0.000000	1.962073
Ti	1.947073	1.962073	1.962073
La	0.000000	0.000000	3.924147
O	1.962073	1.962073	3.924147
O	0.000000	1.962073	5.886220
O	1.962073	0.000000	5.886220
Ti	1.947073	1.962073	5.886220
La	0.000000	3.924147	0.000000
O	1.962073	5.886220	0.000000
O	0.000000	5.886220	1.962073
O	1.962073	3.924147	1.962073
Ti	1.947073	5.886220	1.962073
La	0.000000	3.924147	3.924147
O	1.962073	5.886220	3.924147
O	0.000000	5.886220	5.886220
O	1.962073	3.924147	5.886220
Ti	1.947073	5.886220	5.886220
La	3.924147	0.000000	0.000000
O	5.886220	1.962073	0.000000
O	3.924147	1.962073	1.962073
O	5.886220	0.000000	1.962073
Ti	5.871220	1.962073	1.962073
La	3.924147	0.000000	3.924147
O	5.886220	1.962073	3.924147
O	3.924147	1.962073	5.886220
O	5.886220	0.000000	5.886220
Ti	5.871220	1.962073	5.886220
La	3.924147	3.924147	0.000000
O	5.886220	5.886220	0.000000
O	3.924147	5.886220	1.962073
O	5.886220	3.924147	1.962073
Ti	5.871220	5.886220	1.962073
La	3.924147	3.924147	3.924147
O	5.886220	5.886220	3.924147
O	3.924147	5.886220	5.886220
O	5.886220	3.924147	5.886220
Ti	5.871220	5.886220	5.886220
