40

Au	0.000000	0.000000	0.000000
Co	1.900423	1.900423	1.900423
O	1.900423	1.900423	0.000000
O	1.900423	0.000000	1.900423
O	0.000000	1.900423	1.900423
Au	0.000000	0.000000	3.800846
Co	1.900423	1.900423	5.701269
O	1.900423	1.900423	3.800846
O	1.900423	0.000000	5.701269
O	0.000000	1.900423	5.701269
Au	0.000000	3.800846	0.000000
Co	1.900423	5.701269	1.900423
O	1.900423	5.701269	0.000000
O	1.900423	3.800846	1.900423
O	0.000000	5.701269	1.900423
Au	0.000000	3.800846	3.800846
Co	1.900423	5.701269	5.701269
O	1.900423	5.701269	3.800846
O	1.900423	3.800846	5.701269
O	0.000000	5.701269	5.701269
Au	3.800846	0.000000	0.000000
Co	5.701269	1.900423	1.900423
O	5.701269	1.900423	0.000000
O	5.701269	0.000000	1.900423
O	3.800846	1.900423	1.900423
Au	3.800846	0.000000	3.800846
Co	5.701269	1.900423	5.701269
O	5.701269	1.900423	3.800846
O	5.701269	0.000000	5.701269
O	3.800846	1.900423	5.701269
Au	3.800846	3.800846	0.000000
Co	5.701269	5.701269	1.900423
O	5.701269	5.701269	0.000000
O	5.701269	3.800846	1.900423
O	3.800846	5.701269	1.900423
Au	3.800846	3.800846	3.800846
Co	5.701269	5.701269	5.701269
O	5.701269	5.701269	3.800846
O	5.701269	3.800846	5.701269
O	3.800846	5.701269	5.701269
