112

Ga	0.000000	0.000000	0.000000
Ga	2.303488	-2.300521	-2.300521
O	1.202201	-1.199814	-3.401228
O	3.404776	-1.199814	-1.199814
O	-1.202201	1.199814	-3.401228
O	1.101287	1.100707	-1.100707
O	5.809178	1.199814	-1.199814
O	3.505690	3.500325	-1.100707
O	3.505690	1.100707	-3.500325
O	1.101287	3.500325	-3.500325
Tb	-1.151749	-1.150260	-3.450781
Tb	5.758726	-1.150260	-1.150260
Tb	3.455237	1.150260	-1.150260
Tb	1.151749	1.150260	-3.450781
Ga	4.606978	4.601036	0.000000
Ga	6.910467	2.300515	-2.300521
O	5.809180	3.401222	-3.401228
O	8.011754	3.401222	-1.199814
O	3.404777	5.800849	-3.401228
O	5.708266	5.701743	-1.100707
O	10.416156	5.800849	-1.199814
O	8.112668	8.101361	-1.100707
O	8.112668	5.701743	-3.500325
O	5.708266	8.101361	-3.500325
Tb	3.455229	3.450775	-3.450781
Tb	10.365704	3.450775	-1.150260
Tb	8.062216	5.751296	-1.150260
Tb	5.758728	5.751296	-3.450781
Ga	-4.606978	0.000000	-4.601036
Ga	-2.303490	-2.300521	-6.901557
O	-3.404777	-1.199814	-8.002264
O	-1.202203	-1.199814	-5.800849
O	-5.809180	1.199814	-8.002264
O	-3.505691	1.100707	-5.701743
O	1.202200	1.199814	-5.800849
O	-1.101289	3.500325	-5.701743
O	-1.101289	1.100707	-8.101361
O	-3.505691	3.500325	-8.101361
Tb	-5.758728	-1.150260	-8.051817
Tb	1.151747	-1.150260	-5.751296
Tb	-1.151741	1.150260	-5.751296
Tb	-3.455229	1.150260	-8.051817
Ga	0.000000	4.601036	-4.601036
Ga	2.303488	2.300515	-6.901557
O	1.202201	3.401222	-8.002264
O	3.404776	3.401222	-5.800849
O	-1.202201	5.800849	-8.002264
O	1.101287	5.701743	-5.701743
O	5.809178	5.800849	-5.800849
O	3.505690	8.101361	-5.701743
O	3.505690	5.701743	-8.101361
O	1.101287	8.101361	-8.101361
Tb	-1.151749	3.450775	-8.051817
Tb	5.758726	3.450775	-5.751296
Tb	3.455237	5.751296	-5.751296
Tb	1.151749	5.751296	-8.051817
Ga	4.606978	-4.601036	0.000000
Ga	6.910467	-6.901557	-2.300521
O	5.809180	-5.800849	-3.401228
O	8.011754	-5.800849	-1.199814
O	3.404777	-3.401222	-3.401228
O	5.708266	-3.500329	-1.100707
O	10.416156	-3.401222	-1.199814
O	8.112668	-1.100711	-1.100707
O	8.112668	-3.500329	-3.500325
O	5.708266	-1.100711	-3.500325
Tb	3.455229	-5.751296	-3.450781
Tb	10.365704	-5.751296	-1.150260
Tb	8.062216	-3.450775	-1.150260
Tb	5.758728	-3.450775	-3.450781
Ga	9.213957	0.000000	0.000000
Ga	11.517445	-2.300521	-2.300521
O	10.416158	-1.199814	-3.401228
O	12.618732	-1.199814	-1.199814
O	8.011756	1.199814	-3.401228
O	10.315244	1.100707	-1.100707
O	15.023135	1.199814	-1.199814
O	12.719646	3.500325	-1.100707
O	12.719646	1.100707	-3.500325
O	10.315244	3.500325	-3.500325
Tb	8.062208	-1.150260	-3.450781
Tb	14.972683	-1.150260	-1.150260
Tb	12.669194	1.150260	-1.150260
Tb	10.365706	1.150260	-3.450781
Ga	0.000000	-4.601036	-4.601036
Ga	2.303488	-6.901557	-6.901557
O	1.202201	-5.800849	-8.002264
O	3.404776	-5.800849	-5.800849
O	-1.202201	-3.401222	-8.002264
O	1.101287	-3.500329	-5.701743
O	5.809178	-3.401222	-5.800849
O	3.505690	-1.100711	-5.701743
O	3.505690	-3.500329	-8.101361
O	1.101287	-1.100711	-8.101361
Tb	-1.151749	-5.751296	-8.051817
Tb	5.758726	-5.751296	-5.751296
Tb	3.455237	-3.450775	-5.751296
Tb	1.151749	-3.450775	-8.051817
Ga	4.606978	0.000000	-4.601036
Ga	6.910467	-2.300521	-6.901557
O	5.809180	-1.199814	-8.002264
O	8.011754	-1.199814	-5.800849
O	3.404777	1.199814	-8.002264
O	5.708266	1.100707	-5.701743
O	10.416156	1.199814	-5.800849
O	8.112668	3.500325	-5.701743
O	8.112668	1.100707	-8.101361
O	5.708266	3.500325	-8.101361
Tb	3.455229	-1.150260	-8.051817
Tb	10.365704	-1.150260	-5.751296
Tb	8.062216	1.150260	-5.751296
Tb	5.758728	1.150260	-8.051817
