112

Be	0.000000	0.000000	0.000000
Be	2.276025	-2.276167	-2.276167
O	1.067506	1.067596	-1.067596
O	-1.208519	1.208571	-3.343773
O	3.343531	-1.208571	-1.208571
O	1.208519	-1.208571	-3.343773
O	1.067506	3.484748	-3.484748
O	3.484544	3.484748	-1.067596
O	3.484544	1.067596	-3.484748
O	5.760559	1.208571	-1.208571
Sm	-1.138012	-1.138084	-3.414261
Sm	5.690053	-1.138084	-1.138084
Sm	3.414037	1.138084	-1.138084
Sm	1.138013	1.138084	-3.414261
Be	4.552045	4.552344	0.000000
Be	6.828070	2.276177	-2.276167
O	5.619552	5.619940	-1.067596
O	3.343527	5.760915	-3.343773
O	7.895577	3.343773	-1.208571
O	5.760564	3.343773	-3.343773
O	5.619552	8.037092	-3.484748
O	8.036589	8.037092	-1.067596
O	8.036589	5.619940	-3.484748
O	10.312604	5.760915	-1.208571
Sm	3.414033	3.414260	-3.414261
Sm	10.242098	3.414260	-1.138084
Sm	7.966083	5.690428	-1.138084
Sm	5.690058	5.690428	-3.414261
Be	-4.552045	0.000000	-4.552344
Be	-2.276020	-2.276167	-6.828511
O	-3.484539	1.067596	-5.619940
O	-5.760564	1.208571	-7.896117
O	-1.208514	-1.208571	-5.760915
O	-3.343527	-1.208571	-7.896117
O	-3.484539	3.484748	-8.037092
O	-1.067502	3.484748	-5.619940
O	-1.067502	1.067596	-8.037092
O	1.208513	1.208571	-5.760915
Sm	-5.690058	-1.138084	-7.966605
Sm	1.138007	-1.138084	-5.690428
Sm	-1.138008	1.138084	-5.690428
Sm	-3.414033	1.138084	-7.966605
Be	0.000000	4.552344	-4.552344
Be	2.276025	2.276177	-6.828511
O	1.067506	5.619940	-5.619940
O	-1.208519	5.760915	-7.896117
O	3.343531	3.343773	-5.760915
O	1.208519	3.343773	-7.896117
O	1.067506	8.037092	-8.037092
O	3.484544	8.037092	-5.619940
O	3.484544	5.619940	-8.037092
O	5.760559	5.760915	-5.760915
Sm	-1.138012	3.414260	-7.966605
Sm	5.690053	3.414260	-5.690428
Sm	3.414037	5.690428	-5.690428
Sm	1.138013	5.690428	-7.966605
Be	4.552045	-4.552344	0.000000
Be	6.828070	-6.828511	-2.276167
O	5.619552	-3.484748	-1.067596
O	3.343527	-3.343773	-3.343773
O	7.895577	-5.760915	-1.208571
O	5.760564	-5.760915	-3.343773
O	5.619552	-1.067596	-3.484748
O	8.036589	-1.067596	-1.067596
O	8.036589	-3.484748	-3.484748
O	10.312604	-3.343773	-1.208571
Sm	3.414033	-5.690428	-3.414261
Sm	10.242098	-5.690428	-1.138084
Sm	7.966083	-3.414260	-1.138084
Sm	5.690058	-3.414260	-3.414261
Be	9.104091	0.000000	0.000000
Be	11.380116	-2.276167	-2.276167
O	10.171597	1.067596	-1.067596
O	7.895572	1.208571	-3.343773
O	12.447622	-1.208571	-1.208571
O	10.312609	-1.208571	-3.343773
O	10.171597	3.484748	-3.484748
O	12.588634	3.484748	-1.067596
O	12.588634	1.067596	-3.484748
O	14.864649	1.208571	-1.208571
Sm	7.966078	-1.138084	-3.414261
Sm	14.794143	-1.138084	-1.138084
Sm	12.518128	1.138084	-1.138084
Sm	10.242103	1.138084	-3.414261
Be	0.000000	-4.552344	-4.552344
Be	2.276025	-6.828511	-6.828511
O	1.067506	-3.484748	-5.619940
O	-1.208519	-3.343773	-7.896117
O	3.343531	-5.760915	-5.760915
O	1.208519	-5.760915	-7.896117
O	1.067506	-1.067596	-8.037092
O	3.484544	-1.067596	-5.619940
O	3.484544	-3.484748	-8.037092
O	5.760559	-3.343773	-5.760915
Sm	-1.138012	-5.690428	-7.966605
Sm	5.690053	-5.690428	-5.690428
Sm	3.414037	-3.414260	-5.690428
Sm	1.138013	-3.414260	-7.966605
Be	4.552045	0.000000	-4.552344
Be	6.828070	-2.276167	-6.828511
O	5.619552	1.067596	-5.619940
O	3.343527	1.208571	-7.896117
O	7.895577	-1.208571	-5.760915
O	5.760564	-1.208571	-7.896117
O	5.619552	3.484748	-8.037092
O	8.036589	3.484748	-5.619940
O	8.036589	1.067596	-8.037092
O	10.312604	1.208571	-5.760915
Sm	3.414033	-1.138084	-7.966605
Sm	10.242098	-1.138084	-5.690428
Sm	7.966083	1.138084	-5.690428
Sm	5.690058	1.138084	-7.966605
