40

Ba	2.283867	2.283867	2.283867
Na	0.000000	0.000000	0.000000
O	2.283867	2.283867	0.000000
O	2.283867	0.000000	2.283867
O	0.000000	2.283867	2.283867
Ba	2.283867	2.283867	6.851606
Na	0.000000	0.000000	4.567738
O	2.283867	2.283867	4.567738
O	2.283867	0.000000	6.851606
O	0.000000	2.283867	6.851606
Ba	2.283867	6.851606	2.283867
Na	0.000000	4.567738	0.000000
O	2.283867	6.851606	0.000000
O	2.283867	4.567738	2.283867
O	0.000000	6.851606	2.283867
Ba	2.283867	6.851606	6.851606
Na	0.000000	4.567738	4.567738
O	2.283867	6.851606	4.567738
O	2.283867	4.567738	6.851606
O	0.000000	6.851606	6.851606
Ba	6.851606	2.283867	2.283867
Na	4.567738	0.000000	0.000000
O	6.851606	2.283867	0.000000
O	6.851606	0.000000	2.283867
O	4.567738	2.283867	2.283867
Ba	6.851606	2.283867	6.851606
Na	4.567738	0.000000	4.567738
O	6.851606	2.283867	4.567738
O	6.851606	0.000000	6.851606
O	4.567738	2.283867	6.851606
Ba	6.851606	6.851606	2.283867
Na	4.567738	4.567738	0.000000
O	6.851606	6.851606	0.000000
O	6.851606	4.567738	2.283867
O	4.567738	6.851606	2.283867
Ba	6.851606	6.851606	6.851606
Na	4.567738	4.567738	4.567738
O	6.851606	6.851606	4.567738
O	6.851606	4.567738	6.851606
O	4.567738	6.851606	6.851606
