40

Fe	1.891755	1.891755	1.891755
O	1.891755	1.891755	0.000000
O	1.891755	0.000000	1.891755
O	0.000000	1.891755	1.891755
Re	0.000000	0.000000	0.000000
Fe	1.891755	1.891755	5.675258
O	1.891755	1.891755	3.783503
O	1.891755	0.000000	5.675258
O	0.000000	1.891755	5.675258
Re	0.000000	0.000000	3.783503
Fe	1.891755	5.675258	1.891755
O	1.891755	5.675258	0.000000
O	1.891755	3.783503	1.891755
O	0.000000	5.675258	1.891755
Re	0.000000	3.783503	0.000000
Fe	1.891755	5.675258	5.675258
O	1.891755	5.675258	3.783503
O	1.891755	3.783503	5.675258
O	0.000000	5.675258	5.675258
Re	0.000000	3.783503	3.783503
Fe	5.675258	1.891755	1.891755
O	5.675258	1.891755	0.000000
O	5.675258	0.000000	1.891755
O	3.783503	1.891755	1.891755
Re	3.783503	0.000000	0.000000
Fe	5.675258	1.891755	5.675258
O	5.675258	1.891755	3.783503
O	5.675258	0.000000	5.675258
O	3.783503	1.891755	5.675258
Re	3.783503	0.000000	3.783503
Fe	5.675258	5.675258	1.891755
O	5.675258	5.675258	0.000000
O	5.675258	3.783503	1.891755
O	3.783503	5.675258	1.891755
Re	3.783503	3.783503	0.000000
Fe	5.675258	5.675258	5.675258
O	5.675258	5.675258	3.783503
O	5.675258	3.783503	5.675258
O	3.783503	5.675258	5.675258
Re	3.783503	3.783503	3.783503
