40

Hg	2.120692	2.120692	2.120692
O	0.000000	2.120692	2.120692
O	2.120692	0.000000	2.120692
O	2.120692	2.120692	0.000000
Tl	0.000000	0.000000	0.000000
Hg	2.120692	2.120692	6.362077
O	0.000000	2.120692	6.362077
O	2.120692	0.000000	6.362077
O	2.120692	2.120692	4.241385
Tl	0.000000	0.000000	4.241385
Hg	2.120692	6.362077	2.120692
O	0.000000	6.362077	2.120692
O	2.120692	4.241385	2.120692
O	2.120692	6.362077	0.000000
Tl	0.000000	4.241385	0.000000
Hg	2.120692	6.362077	6.362077
O	0.000000	6.362077	6.362077
O	2.120692	4.241385	6.362077
O	2.120692	6.362077	4.241385
Tl	0.000000	4.241385	4.241385
Hg	6.362077	2.120692	2.120692
O	4.241385	2.120692	2.120692
O	6.362077	0.000000	2.120692
O	6.362077	2.120692	0.000000
Tl	4.241385	0.000000	0.000000
Hg	6.362077	2.120692	6.362077
O	4.241385	2.120692	6.362077
O	6.362077	0.000000	6.362077
O	6.362077	2.120692	4.241385
Tl	4.241385	0.000000	4.241385
Hg	6.362077	6.362077	2.120692
O	4.241385	6.362077	2.120692
O	6.362077	4.241385	2.120692
O	6.362077	6.362077	0.000000
Tl	4.241385	4.241385	0.000000
Hg	6.362077	6.362077	6.362077
O	4.241385	6.362077	6.362077
O	6.362077	4.241385	6.362077
O	6.362077	6.362077	4.241385
Tl	4.241385	4.241385	4.241385
