112

Ca	0.000000	0.000000	0.000000
Ca	2.241037	-2.241894	-2.241894
O	3.524060	-0.957667	-0.957667
O	-0.958004	0.957667	-3.526132
O	0.958004	-0.957667	-3.526132
O	1.283033	1.284227	-1.284227
O	5.440069	0.957667	-0.957667
O	1.283033	3.199572	-3.199572
O	3.199032	3.199572	-1.284227
O	3.199032	1.284227	-3.199572
Os	-1.120519	-1.120947	-3.362852
Os	3.361546	1.120947	-1.120947
Os	5.602583	-1.120947	-1.120947
Os	1.120519	1.120947	-3.362852
Ca	4.482066	4.483798	0.000000
Ca	6.723103	2.241904	-2.241894
O	8.006126	3.526131	-0.957667
O	3.524061	5.441466	-3.526132
O	5.440070	3.526131	-3.526132
O	5.765099	5.768026	-1.284227
O	9.922135	5.441466	-0.957667
O	5.765099	7.683370	-3.199572
O	7.681097	7.683370	-1.284227
O	7.681097	5.768026	-3.199572
Os	3.361547	3.362851	-3.362852
Os	7.843612	5.604746	-1.120947
Os	10.084649	3.362851	-1.120947
Os	5.602584	5.604746	-3.362852
Ca	-4.482066	0.000000	-4.483798
Ca	-2.241029	-2.241894	-6.725693
O	-0.958006	-0.957667	-5.441466
O	-5.440070	0.957667	-8.009930
O	-3.524061	-0.957667	-8.009930
O	-3.199033	1.284227	-5.768026
O	0.958003	0.957667	-5.441466
O	-3.199033	3.199572	-7.683370
O	-1.283034	3.199572	-5.768026
O	-1.283034	1.284227	-7.683370
Os	-5.602584	-1.120947	-7.846650
Os	-1.120520	1.120947	-5.604746
Os	1.120517	-1.120947	-5.604746
Os	-3.361547	1.120947	-7.846650
Ca	0.000000	4.483798	-4.483798
Ca	2.241037	2.241904	-6.725693
O	3.524060	3.526131	-5.441466
O	-0.958004	5.441466	-8.009930
O	0.958004	3.526131	-8.009930
O	1.283033	5.768026	-5.768026
O	5.440069	5.441466	-5.441466
O	1.283033	7.683370	-7.683370
O	3.199032	7.683370	-5.768026
O	3.199032	5.768026	-7.683370
Os	-1.120519	3.362851	-7.846650
Os	3.361546	5.604746	-5.604746
Os	5.602583	3.362851	-5.604746
Os	1.120519	5.604746	-7.846650
Ca	4.482066	-4.483798	0.000000
Ca	6.723103	-6.725693	-2.241894
O	8.006126	-5.441466	-0.957667
O	3.524061	-3.526131	-3.526132
O	5.440070	-5.441466	-3.526132
O	5.765099	-3.199571	-1.284227
O	9.922135	-3.526131	-0.957667
O	5.765099	-1.284227	-3.199572
O	7.681097	-1.284227	-1.284227
O	7.681097	-3.199571	-3.199572
Os	3.361547	-5.604746	-3.362852
Os	7.843612	-3.362851	-1.120947
Os	10.084649	-5.604746	-1.120947
Os	5.602584	-3.362851	-3.362852
Ca	8.964132	0.000000	0.000000
Ca	11.205169	-2.241894	-2.241894
O	12.488192	-0.957667	-0.957667
O	8.006127	0.957667	-3.526132
O	9.922136	-0.957667	-3.526132
O	10.247164	1.284227	-1.284227
O	14.404200	0.957667	-0.957667
O	10.247164	3.199572	-3.199572
O	12.163163	3.199572	-1.284227
O	12.163163	1.284227	-3.199572
Os	7.843613	-1.120947	-3.362852
Os	12.325677	1.120947	-1.120947
Os	14.566715	-1.120947	-1.120947
Os	10.084650	1.120947	-3.362852
Ca	0.000000	-4.483798	-4.483798
Ca	2.241037	-6.725693	-6.725693
O	3.524060	-5.441466	-5.441466
O	-0.958004	-3.526131	-8.009930
O	0.958004	-5.441466	-8.009930
O	1.283033	-3.199571	-5.768026
O	5.440069	-3.526131	-5.441466
O	1.283033	-1.284227	-7.683370
O	3.199032	-1.284227	-5.768026
O	3.199032	-3.199571	-7.683370
Os	-1.120519	-5.604746	-7.846650
Os	3.361546	-3.362851	-5.604746
Os	5.602583	-5.604746	-5.604746
Os	1.120519	-3.362851	-7.846650
Ca	4.482066	0.000000	-4.483798
Ca	6.723103	-2.241894	-6.725693
O	8.006126	-0.957667	-5.441466
O	3.524061	0.957667	-8.009930
O	5.440070	-0.957667	-8.009930
O	5.765099	1.284227	-5.768026
O	9.922135	0.957667	-5.441466
O	5.765099	3.199572	-7.683370
O	7.681097	3.199572	-5.768026
O	7.681097	1.284227	-7.683370
Os	3.361547	-1.120947	-7.846650
Os	7.843612	1.120947	-5.604746
Os	10.084649	-1.120947	-5.604746
Os	5.602584	1.120947	-7.846650
