40

O	2.127845	0.000000	2.127845
O	2.127845	2.127845	0.000000
O	0.000000	2.127845	2.127845
Zr	2.127845	2.127845	2.127845
Ba	0.000000	0.000000	0.000000
O	2.127845	0.000000	6.383534
O	2.127845	2.127845	4.255689
O	0.000000	2.127845	6.383534
Zr	2.127845	2.127845	6.383534
Ba	0.000000	0.000000	4.255689
O	2.127845	4.255689	2.127845
O	2.127845	6.383534	0.000000
O	0.000000	6.383534	2.127845
Zr	2.127845	6.383534	2.127845
Ba	0.000000	4.255689	0.000000
O	2.127845	4.255689	6.383534
O	2.127845	6.383534	4.255689
O	0.000000	6.383534	6.383534
Zr	2.127845	6.383534	6.383534
Ba	0.000000	4.255689	4.255689
O	6.383534	0.000000	2.127845
O	6.383534	2.127845	0.000000
O	4.255689	2.127845	2.127845
Zr	6.383534	2.127845	2.127845
Ba	4.255689	0.000000	0.000000
O	6.383534	0.000000	6.383534
O	6.383534	2.127845	4.255689
O	4.255689	2.127845	6.383534
Zr	6.383534	2.127845	6.383534
Ba	4.255689	0.000000	4.255689
O	6.383534	4.255689	2.127845
O	6.383534	6.383534	0.000000
O	4.255689	6.383534	2.127845
Zr	6.383534	6.383534	2.127845
Ba	4.255689	4.255689	0.000000
O	6.383534	4.255689	6.383534
O	6.383534	6.383534	4.255689
O	4.255689	6.383534	6.383534
Zr	6.383534	6.383534	6.383534
Ba	4.255689	4.255689	4.255689
