40

Eu	0.000000	0.000000	0.000000
In	2.089161	2.089161	2.089161
O	0.000000	2.089161	2.089161
O	2.089161	0.000000	2.089161
O	2.089161	2.089161	0.000000
Eu	0.000000	0.000000	4.178322
In	2.089161	2.089161	6.267483
O	0.000000	2.089161	6.267483
O	2.089161	0.000000	6.267483
O	2.089161	2.089161	4.178322
Eu	0.000000	4.178322	0.000000
In	2.089161	6.267483	2.089161
O	0.000000	6.267483	2.089161
O	2.089161	4.178322	2.089161
O	2.089161	6.267483	0.000000
Eu	0.000000	4.178322	4.178322
In	2.089161	6.267483	6.267483
O	0.000000	6.267483	6.267483
O	2.089161	4.178322	6.267483
O	2.089161	6.267483	4.178322
Eu	4.178322	0.000000	0.000000
In	6.267483	2.089161	2.089161
O	4.178322	2.089161	2.089161
O	6.267483	0.000000	2.089161
O	6.267483	2.089161	0.000000
Eu	4.178322	0.000000	4.178322
In	6.267483	2.089161	6.267483
O	4.178322	2.089161	6.267483
O	6.267483	0.000000	6.267483
O	6.267483	2.089161	4.178322
Eu	4.178322	4.178322	0.000000
In	6.267483	6.267483	2.089161
O	4.178322	6.267483	2.089161
O	6.267483	4.178322	2.089161
O	6.267483	6.267483	0.000000
Eu	4.178322	4.178322	4.178322
In	6.267483	6.267483	6.267483
O	4.178322	6.267483	6.267483
O	6.267483	4.178322	6.267483
O	6.267483	6.267483	4.178322
