40

Al	0.000000	0.000000	0.000000
Na_pv	1.934120	1.934120	1.934120
O	1.934120	0.000000	1.934120
O	0.000000	1.934120	1.934120
O	1.934120	1.934120	0.000000
Al	0.000000	0.000000	3.868242
Na_pv	1.934120	1.934120	5.802362
O	1.934120	0.000000	5.802362
O	0.000000	1.934120	5.802362
O	1.934120	1.934120	3.868242
Al	0.000000	3.868242	0.000000
Na_pv	1.934120	5.802362	1.934120
O	1.934120	3.868242	1.934120
O	0.000000	5.802362	1.934120
O	1.934120	5.802362	0.000000
Al	0.000000	3.868242	3.868242
Na_pv	1.934120	5.802362	5.802362
O	1.934120	3.868242	5.802362
O	0.000000	5.802362	5.802362
O	1.934120	5.802362	3.868242
Al	3.868242	0.000000	0.000000
Na_pv	5.802362	1.934120	1.934120
O	5.802362	0.000000	1.934120
O	3.868242	1.934120	1.934120
O	5.802362	1.934120	0.000000
Al	3.868242	0.000000	3.868242
Na_pv	5.802362	1.934120	5.802362
O	5.802362	0.000000	5.802362
O	3.868242	1.934120	5.802362
O	5.802362	1.934120	3.868242
Al	3.868242	3.868242	0.000000
Na_pv	5.802362	5.802362	1.934120
O	5.802362	3.868242	1.934120
O	3.868242	5.802362	1.934120
O	5.802362	5.802362	0.000000
Al	3.868242	3.868242	3.868242
Na_pv	5.802362	5.802362	5.802362
O	5.802362	3.868242	5.802362
O	3.868242	5.802362	5.802362
O	5.802362	5.802362	3.868242
