40

Al	0.000000	0.000000	0.000000
Na	1.972569	1.972569	1.972569
O	0.000000	1.972569	1.972569
O	1.972569	0.000000	1.972569
O	1.972569	1.972569	0.000000
Al	0.000000	0.000000	3.945139
Na	1.972569	1.972569	5.917708
O	0.000000	1.972569	5.917708
O	1.972569	0.000000	5.917708
O	1.972569	1.972569	3.945139
Al	0.000000	3.945139	0.000000
Na	1.972569	5.917708	1.972569
O	0.000000	5.917708	1.972569
O	1.972569	3.945139	1.972569
O	1.972569	5.917708	0.000000
Al	0.000000	3.945139	3.945139
Na	1.972569	5.917708	5.917708
O	0.000000	5.917708	5.917708
O	1.972569	3.945139	5.917708
O	1.972569	5.917708	3.945139
Al	3.945139	0.000000	0.000000
Na	5.917708	1.972569	1.972569
O	3.945139	1.972569	1.972569
O	5.917708	0.000000	1.972569
O	5.917708	1.972569	0.000000
Al	3.945139	0.000000	3.945139
Na	5.917708	1.972569	5.917708
O	3.945139	1.972569	5.917708
O	5.917708	0.000000	5.917708
O	5.917708	1.972569	3.945139
Al	3.945139	3.945139	0.000000
Na	5.917708	5.917708	1.972569
O	3.945139	5.917708	1.972569
O	5.917708	3.945139	1.972569
O	5.917708	5.917708	0.000000
Al	3.945139	3.945139	3.945139
Na	5.917708	5.917708	5.917708
O	3.945139	5.917708	5.917708
O	5.917708	3.945139	5.917708
O	5.917708	5.917708	3.945139
