40

Al	0.000000	0.000000	0.000000
Na	1.975552	1.975552	1.975552
O	0.000000	1.975552	1.975552
O	1.975552	0.000000	1.975552
O	1.975552	1.975552	0.000000
Al	0.000000	0.000000	3.951105
Na	1.975552	1.975552	5.926657
O	0.000000	1.975552	5.926657
O	1.975552	0.000000	5.926657
O	1.975552	1.975552	3.951105
Al	0.000000	3.951105	0.000000
Na	1.975552	5.926657	1.975552
O	0.000000	5.926657	1.975552
O	1.975552	3.951105	1.975552
O	1.975552	5.926657	0.000000
Al	0.000000	3.951105	3.951105
Na	1.975552	5.926657	5.926657
O	0.000000	5.926657	5.926657
O	1.975552	3.951105	5.926657
O	1.975552	5.926657	3.951105
Al	3.951105	0.000000	0.000000
Na	5.926657	1.975552	1.975552
O	3.951105	1.975552	1.975552
O	5.926657	0.000000	1.975552
O	5.926657	1.975552	0.000000
Al	3.951105	0.000000	3.951105
Na	5.926657	1.975552	5.926657
O	3.951105	1.975552	5.926657
O	5.926657	0.000000	5.926657
O	5.926657	1.975552	3.951105
Al	3.951105	3.951105	0.000000
Na	5.926657	5.926657	1.975552
O	3.951105	5.926657	1.975552
O	5.926657	3.951105	1.975552
O	5.926657	5.926657	0.000000
Al	3.951105	3.951105	3.951105
Na	5.926657	5.926657	5.926657
O	3.951105	5.926657	5.926657
O	5.926657	3.951105	5.926657
O	5.926657	5.926657	3.951105
