40

Dy	0.000000	0.000000	0.000000
Hf	2.033450	2.033450	2.033450
O	2.033450	0.000000	2.033450
O	0.000000	2.033450	2.033450
O	2.033450	2.033450	0.000000
Dy	0.000000	0.000000	4.066892
Hf	2.033450	2.033450	6.100342
O	2.033450	0.000000	6.100342
O	0.000000	2.033450	6.100342
O	2.033450	2.033450	4.066892
Dy	0.000000	4.066892	0.000000
Hf	2.033450	6.100342	2.033450
O	2.033450	4.066892	2.033450
O	0.000000	6.100342	2.033450
O	2.033450	6.100342	0.000000
Dy	0.000000	4.066892	4.066892
Hf	2.033450	6.100342	6.100342
O	2.033450	4.066892	6.100342
O	0.000000	6.100342	6.100342
O	2.033450	6.100342	4.066892
Dy	4.066892	0.000000	0.000000
Hf	6.100342	2.033450	2.033450
O	6.100342	0.000000	2.033450
O	4.066892	2.033450	2.033450
O	6.100342	2.033450	0.000000
Dy	4.066892	0.000000	4.066892
Hf	6.100342	2.033450	6.100342
O	6.100342	0.000000	6.100342
O	4.066892	2.033450	6.100342
O	6.100342	2.033450	4.066892
Dy	4.066892	4.066892	0.000000
Hf	6.100342	6.100342	2.033450
O	6.100342	4.066892	2.033450
O	4.066892	6.100342	2.033450
O	6.100342	6.100342	0.000000
Dy	4.066892	4.066892	4.066892
Hf	6.100342	6.100342	6.100342
O	6.100342	4.066892	6.100342
O	4.066892	6.100342	6.100342
O	6.100342	6.100342	4.066892
