40

Co	1.889175	1.889175	1.889175
O	1.889175	1.889175	0.000000
O	0.000000	1.889175	1.889175
O	1.889175	0.000000	1.889175
Sr	-0.015000	0.000000	0.000000
Co	1.889175	1.889175	5.667524
O	1.889175	1.889175	3.778350
O	0.000000	1.889175	5.667524
O	1.889175	0.000000	5.667524
Sr	-0.015000	0.000000	3.778350
Co	1.889175	5.667524	1.889175
O	1.889175	5.667524	0.000000
O	0.000000	5.667524	1.889175
O	1.889175	3.778350	1.889175
Sr	-0.015000	3.778350	0.000000
Co	1.889175	5.667524	5.667524
O	1.889175	5.667524	3.778350
O	0.000000	5.667524	5.667524
O	1.889175	3.778350	5.667524
Sr	-0.015000	3.778350	3.778350
Co	5.667524	1.889175	1.889175
O	5.667524	1.889175	0.000000
O	3.778350	1.889175	1.889175
O	5.667524	0.000000	1.889175
Sr	3.763350	0.000000	0.000000
Co	5.667524	1.889175	5.667524
O	5.667524	1.889175	3.778350
O	3.778350	1.889175	5.667524
O	5.667524	0.000000	5.667524
Sr	3.763350	0.000000	3.778350
Co	5.667524	5.667524	1.889175
O	5.667524	5.667524	0.000000
O	3.778350	5.667524	1.889175
O	5.667524	3.778350	1.889175
Sr	3.763350	3.778350	0.000000
Co	5.667524	5.667524	5.667524
O	5.667524	5.667524	3.778350
O	3.778350	5.667524	5.667524
O	5.667524	3.778350	5.667524
Sr	3.763350	3.778350	3.778350
