40

Co	0.000000	0.000000	0.000000
O	0.000000	2.257428	2.257428
O	2.257428	0.000000	2.257428
O	2.257428	2.257428	0.000000
Sr	2.257428	2.257428	2.257428
Co	0.000000	0.000000	4.514856
O	0.000000	2.257428	6.772284
O	2.257428	0.000000	6.772284
O	2.257428	2.257428	4.514856
Sr	2.257428	2.257428	6.772284
Co	0.000000	4.514856	0.000000
O	0.000000	6.772284	2.257428
O	2.257428	4.514856	2.257428
O	2.257428	6.772284	0.000000
Sr	2.257428	6.772284	2.257428
Co	0.000000	4.514856	4.514856
O	0.000000	6.772284	6.772284
O	2.257428	4.514856	6.772284
O	2.257428	6.772284	4.514856
Sr	2.257428	6.772284	6.772284
Co	4.514856	0.000000	0.000000
O	4.514856	2.257428	2.257428
O	6.772284	0.000000	2.257428
O	6.772284	2.257428	0.000000
Sr	6.772284	2.257428	2.257428
Co	4.514856	0.000000	4.514856
O	4.514856	2.257428	6.772284
O	6.772284	0.000000	6.772284
O	6.772284	2.257428	4.514856
Sr	6.772284	2.257428	6.772284
Co	4.514856	4.514856	0.000000
O	4.514856	6.772284	2.257428
O	6.772284	4.514856	2.257428
O	6.772284	6.772284	0.000000
Sr	6.772284	6.772284	2.257428
Co	4.514856	4.514856	4.514856
O	4.514856	6.772284	6.772284
O	6.772284	4.514856	6.772284
O	6.772284	6.772284	4.514856
Sr	6.772284	6.772284	6.772284
