40

Ga	0.000000	0.000000	0.000000
O	0.000000	2.366909	2.366909
O	2.366909	0.000000	2.366909
O	2.366909	2.366909	0.000000
Sr	2.366909	2.366909	2.366909
Ga	0.000000	0.000000	4.733819
O	0.000000	2.366909	7.100728
O	2.366909	0.000000	7.100728
O	2.366909	2.366909	4.733819
Sr	2.366909	2.366909	7.100728
Ga	0.000000	4.733819	0.000000
O	0.000000	7.100728	2.366909
O	2.366909	4.733819	2.366909
O	2.366909	7.100728	0.000000
Sr	2.366909	7.100728	2.366909
Ga	0.000000	4.733819	4.733819
O	0.000000	7.100728	7.100728
O	2.366909	4.733819	7.100728
O	2.366909	7.100728	4.733819
Sr	2.366909	7.100728	7.100728
Ga	4.733819	0.000000	0.000000
O	4.733819	2.366909	2.366909
O	7.100728	0.000000	2.366909
O	7.100728	2.366909	0.000000
Sr	7.100728	2.366909	2.366909
Ga	4.733819	0.000000	4.733819
O	4.733819	2.366909	7.100728
O	7.100728	0.000000	7.100728
O	7.100728	2.366909	4.733819
Sr	7.100728	2.366909	7.100728
Ga	4.733819	4.733819	0.000000
O	4.733819	7.100728	2.366909
O	7.100728	4.733819	2.366909
O	7.100728	7.100728	0.000000
Sr	7.100728	7.100728	2.366909
Ga	4.733819	4.733819	4.733819
O	4.733819	7.100728	7.100728
O	7.100728	4.733819	7.100728
O	7.100728	7.100728	4.733819
Sr	7.100728	7.100728	7.100728
