40

Ga	0.000000	0.000000	0.000000
O	2.266338	2.266338	0.000000
O	2.266338	0.000000	2.266338
O	0.000000	2.266338	2.266338
Sr	2.266338	2.266338	2.266338
Ga	0.000000	0.000000	4.532684
O	2.266338	2.266338	4.532684
O	2.266338	0.000000	6.799023
O	0.000000	2.266338	6.799023
Sr	2.266338	2.266338	6.799023
Ga	0.000000	4.532684	0.000000
O	2.266338	6.799023	0.000000
O	2.266338	4.532684	2.266338
O	0.000000	6.799023	2.266338
Sr	2.266338	6.799023	2.266338
Ga	0.000000	4.532684	4.532684
O	2.266338	6.799023	4.532684
O	2.266338	4.532684	6.799023
O	0.000000	6.799023	6.799023
Sr	2.266338	6.799023	6.799023
Ga	4.532684	0.000000	0.000000
O	6.799023	2.266338	0.000000
O	6.799023	0.000000	2.266338
O	4.532684	2.266338	2.266338
Sr	6.799023	2.266338	2.266338
Ga	4.532684	0.000000	4.532684
O	6.799023	2.266338	4.532684
O	6.799023	0.000000	6.799023
O	4.532684	2.266338	6.799023
Sr	6.799023	2.266338	6.799023
Ga	4.532684	4.532684	0.000000
O	6.799023	6.799023	0.000000
O	6.799023	4.532684	2.266338
O	4.532684	6.799023	2.266338
Sr	6.799023	6.799023	2.266338
Ga	4.532684	4.532684	4.532684
O	6.799023	6.799023	4.532684
O	6.799023	4.532684	6.799023
O	4.532684	6.799023	6.799023
Sr	6.799023	6.799023	6.799023
