40

Cs	0.000000	0.000000	0.000000
Hg	2.231494	2.231494	2.231494
O	0.000000	2.231494	2.231494
O	2.231494	0.000000	2.231494
O	2.231494	2.231494	0.000000
Cs	0.000000	0.000000	4.462988
Hg	2.231494	2.231494	6.694482
O	0.000000	2.231494	6.694482
O	2.231494	0.000000	6.694482
O	2.231494	2.231494	4.462988
Cs	0.000000	4.462988	0.000000
Hg	2.231494	6.694482	2.231494
O	0.000000	6.694482	2.231494
O	2.231494	4.462988	2.231494
O	2.231494	6.694482	0.000000
Cs	0.000000	4.462988	4.462988
Hg	2.231494	6.694482	6.694482
O	0.000000	6.694482	6.694482
O	2.231494	4.462988	6.694482
O	2.231494	6.694482	4.462988
Cs	4.462988	0.000000	0.000000
Hg	6.694482	2.231494	2.231494
O	4.462988	2.231494	2.231494
O	6.694482	0.000000	2.231494
O	6.694482	2.231494	0.000000
Cs	4.462988	0.000000	4.462988
Hg	6.694482	2.231494	6.694482
O	4.462988	2.231494	6.694482
O	6.694482	0.000000	6.694482
O	6.694482	2.231494	4.462988
Cs	4.462988	4.462988	0.000000
Hg	6.694482	6.694482	2.231494
O	4.462988	6.694482	2.231494
O	6.694482	4.462988	2.231494
O	6.694482	6.694482	0.000000
Cs	4.462988	4.462988	4.462988
Hg	6.694482	6.694482	6.694482
O	4.462988	6.694482	6.694482
O	6.694482	4.462988	6.694482
O	6.694482	6.694482	4.462988
