40

In	2.052444	2.052444	2.052444
O	2.052444	2.052444	0.000000
O	0.000000	2.052444	2.052444
O	2.052444	0.000000	2.052444
Sm	0.000000	0.000000	0.000000
In	2.052444	2.052444	6.157340
O	2.052444	2.052444	4.104896
O	0.000000	2.052444	6.157340
O	2.052444	0.000000	6.157340
Sm	0.000000	0.000000	4.104896
In	2.052444	6.157340	2.052444
O	2.052444	6.157340	0.000000
O	0.000000	6.157340	2.052444
O	2.052444	4.104896	2.052444
Sm	0.000000	4.104896	0.000000
In	2.052444	6.157340	6.157340
O	2.052444	6.157340	4.104896
O	0.000000	6.157340	6.157340
O	2.052444	4.104896	6.157340
Sm	0.000000	4.104896	4.104896
In	6.157340	2.052444	2.052444
O	6.157340	2.052444	0.000000
O	4.104896	2.052444	2.052444
O	6.157340	0.000000	2.052444
Sm	4.104896	0.000000	0.000000
In	6.157340	2.052444	6.157340
O	6.157340	2.052444	4.104896
O	4.104896	2.052444	6.157340
O	6.157340	0.000000	6.157340
Sm	4.104896	0.000000	4.104896
In	6.157340	6.157340	2.052444
O	6.157340	6.157340	0.000000
O	4.104896	6.157340	2.052444
O	6.157340	4.104896	2.052444
Sm	4.104896	4.104896	0.000000
In	6.157340	6.157340	6.157340
O	6.157340	6.157340	4.104896
O	4.104896	6.157340	6.157340
O	6.157340	4.104896	6.157340
Sm	4.104896	4.104896	4.104896
