112

K	0.000000	0.000000	0.000000
K	2.493250	-2.493979	-2.493979
O	3.966075	-1.020052	-1.020052
O	-1.020426	1.020052	-3.967905
O	1.020426	-1.020052	-3.967905
O	1.472824	1.473927	-1.473927
O	6.006926	1.020052	-1.020052
O	1.472824	3.514030	-3.514030
O	3.513676	3.514030	-1.473927
O	3.513676	1.473927	-3.514030
Sb	-1.246625	-1.246989	-3.740968
Sb	3.739875	1.246989	-1.246989
Sb	6.233125	-1.246989	-1.246989
Sb	1.246625	1.246989	-3.740968
K	4.986500	4.987957	0.000000
K	7.479750	2.493979	-2.493979
O	8.952575	3.967905	-1.020052
O	3.966075	6.008009	-3.967905
O	6.006926	3.967905	-3.967905
O	6.459325	6.461884	-1.473927
O	10.993426	6.008009	-1.020052
O	6.459325	8.501988	-3.514030
O	8.500176	8.501988	-1.473927
O	8.500176	6.461884	-3.514030
Sb	3.739875	3.740968	-3.740968
Sb	8.726376	6.234946	-1.246989
Sb	11.219626	3.740968	-1.246989
Sb	6.233125	6.234946	-3.740968
K	-4.986500	0.000000	-4.987957
K	-2.493250	-2.493979	-7.481936
O	-1.020426	-1.020052	-6.008009
O	-6.006926	1.020052	-8.955863
O	-3.966075	-1.020052	-8.955863
O	-3.513676	1.473927	-6.461884
O	1.020426	1.020052	-6.008009
O	-3.513676	3.514030	-8.501988
O	-1.472824	3.514030	-6.461884
O	-1.472824	1.473927	-8.501988
Sb	-6.233125	-1.246989	-8.728925
Sb	-1.246625	1.246989	-6.234946
Sb	1.246625	-1.246989	-6.234946
Sb	-3.739875	1.246989	-8.728925
K	0.000000	4.987957	-4.987957
K	2.493250	2.493979	-7.481936
O	3.966075	3.967905	-6.008009
O	-1.020426	6.008009	-8.955863
O	1.020426	3.967905	-8.955863
O	1.472824	6.461884	-6.461884
O	6.006926	6.008009	-6.008009
O	1.472824	8.501988	-8.501988
O	3.513676	8.501988	-6.461884
O	3.513676	6.461884	-8.501988
Sb	-1.246625	3.740968	-8.728925
Sb	3.739875	6.234946	-6.234946
Sb	6.233125	3.740968	-6.234946
Sb	1.246625	6.234946	-8.728925
K	4.986500	-4.987957	0.000000
K	7.479750	-7.481936	-2.493979
O	8.952575	-6.008009	-1.020052
O	3.966075	-3.967905	-3.967905
O	6.006926	-6.008009	-3.967905
O	6.459325	-3.514030	-1.473927
O	10.993426	-3.967905	-1.020052
O	6.459325	-1.473927	-3.514030
O	8.500176	-1.473927	-1.473927
O	8.500176	-3.514030	-3.514030
Sb	3.739875	-6.234946	-3.740968
Sb	8.726376	-3.740968	-1.246989
Sb	11.219626	-6.234946	-1.246989
Sb	6.233125	-3.740968	-3.740968
K	9.973001	0.000000	0.000000
K	12.466251	-2.493979	-2.493979
O	13.939075	-1.020052	-1.020052
O	8.952575	1.020052	-3.967905
O	10.993426	-1.020052	-3.967905
O	11.445825	1.473927	-1.473927
O	15.979927	1.020052	-1.020052
O	11.445825	3.514030	-3.514030
O	13.486677	3.514030	-1.473927
O	13.486676	1.473927	-3.514030
Sb	8.726376	-1.246989	-3.740968
Sb	13.712876	1.246989	-1.246989
Sb	16.206126	-1.246989	-1.246989
Sb	11.219626	1.246989	-3.740968
K	0.000000	-4.987957	-4.987957
K	2.493250	-7.481936	-7.481936
O	3.966075	-6.008009	-6.008009
O	-1.020426	-3.967905	-8.955863
O	1.020426	-6.008009	-8.955863
O	1.472824	-3.514030	-6.461884
O	6.006926	-3.967905	-6.008009
O	1.472824	-1.473927	-8.501988
O	3.513676	-1.473927	-6.461884
O	3.513676	-3.514030	-8.501988
Sb	-1.246625	-6.234946	-8.728925
Sb	3.739875	-3.740968	-6.234946
Sb	6.233125	-6.234946	-6.234946
Sb	1.246625	-3.740968	-8.728925
K	4.986500	0.000000	-4.987957
K	7.479750	-2.493979	-7.481936
O	8.952575	-1.020052	-6.008009
O	3.966075	1.020052	-8.955863
O	6.006926	-1.020052	-8.955863
O	6.459325	1.473927	-6.461884
O	10.993426	1.020052	-6.008009
O	6.459325	3.514030	-8.501988
O	8.500176	3.514030	-6.461884
O	8.500176	1.473927	-8.501988
Sb	3.739875	-1.246989	-8.728925
Sb	8.726376	1.246989	-6.234946
Sb	11.219626	-1.246989	-6.234946
Sb	6.233125	1.246989	-8.728925
