112

Nb	0.000000	0.000000	0.000000
Nb	2.419226	-2.402277	-2.402277
O	1.132609	1.121462	-1.121462
O	-1.286618	1.280816	-3.523739
O	3.551835	-1.280816	-1.280816
O	1.286618	-1.280816	-3.523739
O	1.132609	3.683093	-3.683093
O	3.705834	3.683093	-1.121462
O	3.705834	1.121462	-3.683093
O	6.125061	1.280816	-1.280816
Pu	-1.209608	-1.201139	-3.603416
Pu	1.209608	1.201139	-3.603416
Pu	3.628835	1.201139	-1.201139
Pu	6.048061	-1.201139	-1.201139
Nb	4.838448	4.804554	0.000000
Nb	7.257675	2.402277	-2.402277
O	5.971057	5.926016	-1.121462
O	3.551831	6.085370	-3.523739
O	8.390283	3.523739	-1.280816
O	6.125066	3.523739	-3.523739
O	5.971057	8.487647	-3.683093
O	8.544283	8.487647	-1.121462
O	8.544283	5.926016	-3.683093
O	10.963509	6.085370	-1.280816
Pu	3.628840	3.603416	-3.603416
Pu	6.048057	6.005693	-3.603416
Pu	8.467283	6.005693	-1.201139
Pu	10.886509	3.603416	-1.201139
Nb	-4.838448	0.000000	-4.804554
Nb	-2.419222	-2.402277	-7.206832
O	-3.705840	1.121462	-5.926016
O	-6.125066	1.280816	-8.328293
O	-1.286613	-1.280816	-6.085370
O	-3.551831	-1.280816	-8.328293
O	-3.705840	3.683093	-8.487647
O	-1.132614	3.683093	-5.926016
O	-1.132614	1.121462	-8.487647
O	1.286612	1.280816	-6.085370
Pu	-6.048057	-1.201139	-8.407970
Pu	-3.628840	1.201139	-8.407970
Pu	-1.209614	1.201139	-6.005693
Pu	1.209612	-1.201139	-6.005693
Nb	0.000000	4.804554	-4.804554
Nb	2.419226	2.402277	-7.206832
O	1.132609	5.926016	-5.926016
O	-1.286618	6.085370	-8.328293
O	3.551835	3.523739	-6.085370
O	1.286618	3.523739	-8.328293
O	1.132609	8.487647	-8.487647
O	3.705834	8.487647	-5.926016
O	3.705834	5.926016	-8.487647
O	6.125061	6.085370	-6.085370
Pu	-1.209608	3.603416	-8.407970
Pu	1.209608	6.005693	-8.407970
Pu	3.628835	6.005693	-6.005693
Pu	6.048061	3.603416	-6.005693
Nb	4.838448	-4.804554	0.000000
Nb	7.257675	-7.206832	-2.402277
O	5.971057	-3.683093	-1.121462
O	3.551831	-3.523739	-3.523739
O	8.390283	-6.085370	-1.280816
O	6.125066	-6.085370	-3.523739
O	5.971057	-1.121461	-3.683093
O	8.544283	-1.121461	-1.121462
O	8.544283	-3.683093	-3.683093
O	10.963509	-3.523739	-1.280816
Pu	3.628840	-6.005693	-3.603416
Pu	6.048057	-3.603416	-3.603416
Pu	8.467283	-3.603416	-1.201139
Pu	10.886509	-6.005693	-1.201139
Nb	9.676897	0.000000	0.000000
Nb	12.096123	-2.402277	-2.402277
O	10.809505	1.121462	-1.121462
O	8.390279	1.280816	-3.523739
O	13.228732	-1.280816	-1.280816
O	10.963515	-1.280816	-3.523739
O	10.809505	3.683093	-3.683093
O	13.382731	3.683093	-1.121462
O	13.382731	1.121462	-3.683093
O	15.801957	1.280816	-1.280816
Pu	8.467289	-1.201139	-3.603416
Pu	10.886505	1.201139	-3.603416
Pu	13.305731	1.201139	-1.201139
Pu	15.724958	-1.201139	-1.201139
Nb	0.000000	-4.804554	-4.804554
Nb	2.419226	-7.206832	-7.206832
O	1.132609	-3.683093	-5.926016
O	-1.286618	-3.523739	-8.328293
O	3.551835	-6.085370	-6.085370
O	1.286618	-6.085370	-8.328293
O	1.132609	-1.121461	-8.487647
O	3.705834	-1.121461	-5.926016
O	3.705834	-3.683093	-8.487647
O	6.125061	-3.523739	-6.085370
Pu	-1.209608	-6.005693	-8.407970
Pu	1.209608	-3.603416	-8.407970
Pu	3.628835	-3.603416	-6.005693
Pu	6.048061	-6.005693	-6.005693
Nb	4.838448	0.000000	-4.804554
Nb	7.257675	-2.402277	-7.206832
O	5.971057	1.121462	-5.926016
O	3.551831	1.280816	-8.328293
O	8.390283	-1.280816	-6.085370
O	6.125066	-1.280816	-8.328293
O	5.971057	3.683093	-8.487647
O	8.544283	3.683093	-5.926016
O	8.544283	1.121462	-8.487647
O	10.963509	1.280816	-6.085370
Pu	3.628840	-1.201139	-8.407970
Pu	6.048057	1.201139	-8.407970
Pu	8.467283	1.201139	-6.005693
Pu	10.886509	-1.201139	-6.005693
