112

Al	0.000000	0.000000	0.000000
Al	2.194387	-2.194523	-2.194523
Ge	-1.097193	-1.097261	-3.291784
Ge	3.291580	1.097261	-1.097261
Ge	5.485967	-1.097261	-1.097261
Ge	1.097193	1.097261	-3.291784
O	3.244336	-1.144059	-1.144059
O	-1.144438	1.144059	-3.244987
O	1.144438	-1.144059	-3.244987
O	1.049949	1.050464	-1.050464
O	5.533211	1.144059	-1.144059
O	1.049949	3.338582	-3.338582
O	3.338824	3.338582	-1.050464
O	3.338824	1.050464	-3.338582
Al	4.388774	4.389046	0.000000
Al	6.583160	2.194523	-2.194523
Ge	3.291580	3.291784	-3.291784
Ge	7.680354	5.486307	-1.097261
Ge	9.874741	3.291784	-1.097261
Ge	5.485967	5.486307	-3.291784
O	7.633110	3.244987	-1.144059
O	3.244336	5.533104	-3.244987
O	5.533211	3.244987	-3.244987
O	5.438723	5.439510	-1.050464
O	9.921985	5.533104	-1.144059
O	5.438723	7.727627	-3.338582
O	7.727598	7.727627	-1.050464
O	7.727598	5.439510	-3.338582
Al	-4.388774	0.000000	-4.389046
Al	-2.194387	-2.194523	-6.583568
Ge	-5.485967	-1.097261	-7.680830
Ge	-1.097193	1.097261	-5.486307
Ge	1.097193	-1.097261	-5.486307
Ge	-3.291580	1.097261	-7.680830
O	-1.144438	-1.144059	-5.533105
O	-5.533211	1.144059	-7.634032
O	-3.244336	-1.144059	-7.634032
O	-3.338824	1.050464	-5.439510
O	1.144438	1.144059	-5.533105
O	-3.338824	3.338582	-7.727627
O	-1.049949	3.338582	-5.439510
O	-1.049949	1.050464	-7.727627
Al	0.000000	4.389046	-4.389046
Al	2.194387	2.194523	-6.583568
Ge	-1.097193	3.291784	-7.680830
Ge	3.291580	5.486307	-5.486307
Ge	5.485967	3.291784	-5.486307
Ge	1.097193	5.486307	-7.680830
O	3.244336	3.244987	-5.533105
O	-1.144438	5.533104	-7.634032
O	1.144438	3.244987	-7.634032
O	1.049949	5.439510	-5.439510
O	5.533211	5.533104	-5.533105
O	1.049949	7.727627	-7.727627
O	3.338824	7.727627	-5.439510
O	3.338824	5.439510	-7.727627
Al	4.388774	-4.389046	0.000000
Al	6.583160	-6.583568	-2.194523
Ge	3.291580	-5.486307	-3.291784
Ge	7.680354	-3.291784	-1.097261
Ge	9.874741	-5.486307	-1.097261
Ge	5.485967	-3.291784	-3.291784
O	7.633110	-5.533105	-1.144059
O	3.244336	-3.244987	-3.244987
O	5.533211	-5.533105	-3.244987
O	5.438723	-3.338582	-1.050464
O	9.921985	-3.244987	-1.144059
O	5.438723	-1.050464	-3.338582
O	7.727598	-1.050464	-1.050464
O	7.727598	-3.338582	-3.338582
Al	8.777547	0.000000	0.000000
Al	10.971934	-2.194523	-2.194523
Ge	7.680354	-1.097261	-3.291784
Ge	12.069127	1.097261	-1.097261
Ge	14.263514	-1.097261	-1.097261
Ge	9.874741	1.097261	-3.291784
O	12.021883	-1.144059	-1.144059
O	7.633110	1.144059	-3.244987
O	9.921985	-1.144059	-3.244987
O	9.827496	1.050464	-1.050464
O	14.310758	1.144059	-1.144059
O	9.827496	3.338582	-3.338582
O	12.116372	3.338582	-1.050464
O	12.116371	1.050464	-3.338582
Al	0.000000	-4.389046	-4.389046
Al	2.194387	-6.583568	-6.583568
Ge	-1.097193	-5.486307	-7.680830
Ge	3.291580	-3.291784	-5.486307
Ge	5.485967	-5.486307	-5.486307
Ge	1.097193	-3.291784	-7.680830
O	3.244336	-5.533105	-5.533105
O	-1.144438	-3.244987	-7.634032
O	1.144438	-5.533105	-7.634032
O	1.049949	-3.338582	-5.439510
O	5.533211	-3.244987	-5.533105
O	1.049949	-1.050464	-7.727627
O	3.338824	-1.050464	-5.439510
O	3.338824	-3.338582	-7.727627
Al	4.388774	0.000000	-4.389046
Al	6.583160	-2.194523	-6.583568
Ge	3.291580	-1.097261	-7.680830
Ge	7.680354	1.097261	-5.486307
Ge	9.874741	-1.097261	-5.486307
Ge	5.485967	1.097261	-7.680830
O	7.633110	-1.144059	-5.533105
O	3.244336	1.144059	-7.634032
O	5.533211	-1.144059	-7.634032
O	5.438723	1.050464	-5.439510
O	9.921985	1.144059	-5.533105
O	5.438723	3.338582	-7.727627
O	7.727598	3.338582	-5.439510
O	7.727598	1.050464	-7.727627
