40

Ac	2.251580	2.251580	2.251580
O	2.251580	2.251580	0.000000
O	0.000000	2.251580	2.251580
O	2.251580	0.000000	2.251580
Zn	0.000000	0.000000	0.000000
Ac	2.251580	2.251580	6.754738
O	2.251580	2.251580	4.503158
O	0.000000	2.251580	6.754738
O	2.251580	0.000000	6.754738
Zn	0.000000	0.000000	4.503158
Ac	2.251580	6.754738	2.251580
O	2.251580	6.754738	0.000000
O	0.000000	6.754738	2.251580
O	2.251580	4.503158	2.251580
Zn	0.000000	4.503158	0.000000
Ac	2.251580	6.754738	6.754738
O	2.251580	6.754738	4.503158
O	0.000000	6.754738	6.754738
O	2.251580	4.503158	6.754738
Zn	0.000000	4.503158	4.503158
Ac	6.754738	2.251580	2.251580
O	6.754738	2.251580	0.000000
O	4.503158	2.251580	2.251580
O	6.754738	0.000000	2.251580
Zn	4.503158	0.000000	0.000000
Ac	6.754738	2.251580	6.754738
O	6.754738	2.251580	4.503158
O	4.503158	2.251580	6.754738
O	6.754738	0.000000	6.754738
Zn	4.503158	0.000000	4.503158
Ac	6.754738	6.754738	2.251580
O	6.754738	6.754738	0.000000
O	4.503158	6.754738	2.251580
O	6.754738	4.503158	2.251580
Zn	4.503158	4.503158	0.000000
Ac	6.754738	6.754738	6.754738
O	6.754738	6.754738	4.503158
O	4.503158	6.754738	6.754738
O	6.754738	4.503158	6.754738
Zn	4.503158	4.503158	4.503158
