160

Mn	1.834915	1.834915	1.834915
Mn	1.834915	-1.834915	-1.834915
Mn	3.669830	0.000000	0.000000
Mn	-1.834915	1.834915	-1.834915
Mn	0.000000	3.669830	0.000000
Mn	0.000000	0.000000	-3.669830
Mn	1.834915	1.834915	-1.834915
Na	0.000000	0.000000	0.000000
O	3.669830	2.320296	1.384792
O	2.285038	0.000000	-1.349534
O	5.054621	0.000000	-1.349534
O	1.349534	2.285038	-0.000000
O	2.320296	-1.384792	-3.669830
O	0.000000	1.349534	-2.285038
O	3.669830	2.320296	-1.384792
O	1.349534	5.054621	0.000000
O	2.320296	1.384792	-3.669830
O	-1.384792	3.669830	-2.320296
O	1.384792	3.669830	-2.320296
O	0.000000	1.349534	-5.054621
Mn	-1.834915	5.504745	-1.834915
Mn	-1.834915	1.834915	-5.504745
Mn	0.000000	3.669830	-3.669830
Mn	-5.504745	5.504745	-5.504745
Mn	-3.669830	7.339660	-3.669830
Mn	-3.669830	3.669830	-7.339660
Mn	-1.834915	5.504745	-5.504745
Na	-3.669830	3.669830	-3.669830
O	-0.000000	5.990126	-2.285038
O	-1.384792	3.669830	-5.019364
O	1.384792	3.669830	-5.019364
O	-2.320296	5.954868	-3.669830
O	-1.349534	2.285038	-7.339660
O	-3.669830	5.019364	-5.954868
O	-0.000000	5.990126	-5.054622
O	-2.320296	8.724451	-3.669830
O	-1.349534	5.054622	-7.339660
O	-5.054621	7.339660	-5.990126
O	-2.285038	7.339660	-5.990126
O	-3.669830	5.019364	-8.724451
Mn	5.504745	-1.834915	-1.834915
Mn	5.504745	-5.504745	-5.504745
Mn	7.339660	-3.669830	-3.669830
Mn	1.834915	-1.834915	-5.504745
Mn	3.669830	0.000000	-3.669830
Mn	3.669830	-3.669830	-7.339660
Mn	5.504745	-1.834915	-5.504745
Na	3.669830	-3.669830	-3.669830
O	7.339660	-1.349534	-2.285038
O	5.954868	-3.669830	-5.019364
O	8.724451	-3.669830	-5.019364
O	5.019364	-1.384792	-3.669830
O	5.990126	-5.054621	-7.339660
O	3.669830	-2.320296	-5.954868
O	7.339660	-1.349534	-5.054622
O	5.019364	1.384792	-3.669830
O	5.990126	-2.285038	-7.339660
O	2.285038	0.000000	-5.990126
O	5.054622	-0.000000	-5.990126
O	3.669830	-2.320296	-8.724451
Mn	1.834915	1.834915	-5.504745
Mn	1.834915	-1.834915	-9.174575
Mn	3.669830	0.000000	-7.339660
Mn	-1.834915	1.834915	-9.174575
Mn	0.000000	3.669830	-7.339660
Mn	0.000000	0.000000	-11.009490
Mn	1.834915	1.834915	-9.174575
Na	0.000000	0.000000	-7.339660
O	3.669830	2.320296	-5.954868
O	2.285038	0.000000	-8.689194
O	5.054621	0.000000	-8.689194
O	1.349534	2.285038	-7.339660
O	2.320296	-1.384792	-11.009490
O	0.000000	1.349534	-9.624698
O	3.669830	2.320296	-8.724451
O	1.349534	5.054621	-7.339660
O	2.320296	1.384792	-11.009490
O	-1.384792	3.669830	-9.659956
O	1.384792	3.669830	-9.659956
O	0.000000	1.349534	-12.394281
Mn	5.504745	5.504745	5.504745
Mn	5.504745	1.834915	1.834915
Mn	7.339660	3.669830	3.669830
Mn	1.834915	5.504745	1.834915
Mn	3.669830	7.339660	3.669830
Mn	3.669830	3.669830	0.000000
Mn	5.504745	5.504745	1.834915
Na	3.669830	3.669830	3.669830
O	7.339660	5.990126	5.054621
O	5.954868	3.669830	2.320296
O	8.724451	3.669830	2.320296
O	5.019364	5.954868	3.669830
O	5.990126	2.285038	0.000000
O	3.669830	5.019364	1.384792
O	7.339660	5.990126	2.285038
O	5.019364	8.724451	3.669830
O	5.990126	5.054622	0.000000
O	2.285038	7.339660	1.349534
O	5.054622	7.339660	1.349534
O	3.669830	5.019364	-1.384792
Mn	1.834915	9.174575	1.834915
Mn	1.834915	5.504745	-1.834915
Mn	3.669830	7.339660	0.000000
Mn	-1.834915	9.174575	-1.834915
Mn	0.000000	11.009490	0.000000
Mn	0.000000	7.339660	-3.669830
Mn	1.834915	9.174575	-1.834915
Na	0.000000	7.339660	0.000000
O	3.669830	9.659956	1.384792
O	2.285038	7.339660	-1.349534
O	5.054621	7.339660	-1.349534
O	1.349534	9.624698	-0.000000
O	2.320296	5.954868	-3.669830
O	0.000000	8.689194	-2.285038
O	3.669830	9.659956	-1.384792
O	1.349534	12.394281	0.000000
O	2.320296	8.724451	-3.669830
O	-1.384792	11.009490	-2.320296
O	1.384792	11.009490	-2.320296
O	0.000000	8.689194	-5.054621
Mn	9.174575	1.834915	1.834915
Mn	9.174575	-1.834915	-1.834915
Mn	11.009490	0.000000	0.000000
Mn	5.504745	1.834915	-1.834915
Mn	7.339660	3.669830	0.000000
Mn	7.339660	0.000000	-3.669830
Mn	9.174575	1.834915	-1.834915
Na	7.339660	0.000000	0.000000
O	11.009490	2.320296	1.384792
O	9.624698	0.000000	-1.349534
O	12.394281	0.000000	-1.349534
O	8.689194	2.285038	-0.000000
O	9.659956	-1.384792	-3.669830
O	7.339660	1.349534	-2.285038
O	11.009490	2.320296	-1.384792
O	8.689194	5.054621	0.000000
O	9.659956	1.384792	-3.669830
O	5.954868	3.669830	-2.320296
O	8.724451	3.669830	-2.320296
O	7.339660	1.349534	-5.054621
Mn	5.504745	5.504745	-1.834915
Mn	5.504745	1.834915	-5.504745
Mn	7.339660	3.669830	-3.669830
Mn	1.834915	5.504745	-5.504745
Mn	3.669830	7.339660	-3.669830
Mn	3.669830	3.669830	-7.339660
Mn	5.504745	5.504745	-5.504745
Na	3.669830	3.669830	-3.669830
O	7.339660	5.990126	-2.285038
O	5.954868	3.669830	-5.019364
O	8.724451	3.669830	-5.019364
O	5.019364	5.954868	-3.669830
O	5.990126	2.285038	-7.339660
O	3.669830	5.019364	-5.954868
O	7.339660	5.990126	-5.054622
O	5.019364	8.724451	-3.669830
O	5.990126	5.054622	-7.339660
O	2.285038	7.339660	-5.990126
O	5.054622	7.339660	-5.990126
O	3.669830	5.019364	-8.724451
