112

Ir	0.000000	0.000000	0.000000
Ir	2.463714	-2.464062	-2.464062
O	3.757403	-1.169608	-1.169608
O	-1.170025	1.169608	-3.758515
O	1.170025	-1.169608	-3.758515
O	1.293689	1.294454	-1.294454
O	6.097452	1.169608	-1.169608
O	1.293689	3.633669	-3.633669
O	3.633738	3.633669	-1.294454
O	3.633738	1.294454	-3.633669
Pr	-1.231857	-1.232031	-3.696092
Pr	3.695571	1.232031	-1.232031
Pr	6.159284	-1.232031	-1.232031
Pr	1.231857	1.232031	-3.696092
Ir	4.927427	4.928123	0.000000
Ir	7.391141	2.464062	-2.464062
O	8.684830	3.758515	-1.169608
O	3.757403	6.097731	-3.758515
O	6.097452	3.758515	-3.758515
O	6.221117	6.222577	-1.294454
O	11.024880	6.097731	-1.169608
O	6.221117	8.561792	-3.633669
O	8.561166	8.561792	-1.294454
O	8.561166	6.222577	-3.633669
Pr	3.695571	3.696092	-3.696092
Pr	8.622998	6.160154	-1.232031
Pr	11.086712	3.696092	-1.232031
Pr	6.159284	6.160154	-3.696092
Ir	-4.927427	0.000000	-4.928123
Ir	-2.463714	-2.464062	-7.392185
O	-1.170025	-1.169608	-6.097731
O	-6.097452	1.169608	-8.686638
O	-3.757403	-1.169608	-8.686638
O	-3.633738	1.294454	-6.222577
O	1.170025	1.169608	-6.097731
O	-3.633738	3.633669	-8.561792
O	-1.293689	3.633669	-6.222577
O	-1.293689	1.294454	-8.561792
Pr	-6.159284	-1.232031	-8.624215
Pr	-1.231857	1.232031	-6.160154
Pr	1.231857	-1.232031	-6.160154
Pr	-3.695571	1.232031	-8.624215
Ir	0.000000	4.928123	-4.928123
Ir	2.463714	2.464062	-7.392185
O	3.757403	3.758515	-6.097731
O	-1.170025	6.097731	-8.686638
O	1.170025	3.758515	-8.686638
O	1.293689	6.222577	-6.222577
O	6.097452	6.097731	-6.097731
O	1.293689	8.561792	-8.561792
O	3.633738	8.561792	-6.222577
O	3.633738	6.222577	-8.561792
Pr	-1.231857	3.696092	-8.624215
Pr	3.695571	6.160154	-6.160154
Pr	6.159284	3.696092	-6.160154
Pr	1.231857	6.160154	-8.624215
Ir	4.927427	-4.928123	0.000000
Ir	7.391141	-7.392185	-2.464062
O	8.684830	-6.097731	-1.169608
O	3.757403	-3.758515	-3.758515
O	6.097452	-6.097731	-3.758515
O	6.221117	-3.633669	-1.294454
O	11.024880	-3.758515	-1.169608
O	6.221117	-1.294454	-3.633669
O	8.561166	-1.294454	-1.294454
O	8.561166	-3.633669	-3.633669
Pr	3.695571	-6.160154	-3.696092
Pr	8.622998	-3.696092	-1.232031
Pr	11.086712	-6.160154	-1.232031
Pr	6.159284	-3.696092	-3.696092
Ir	9.854855	0.000000	0.000000
Ir	12.318569	-2.464062	-2.464062
O	13.612258	-1.169608	-1.169608
O	8.684830	1.169608	-3.758515
O	11.024880	-1.169608	-3.758515
O	11.148544	1.294454	-1.294454
O	15.952307	1.169608	-1.169608
O	11.148544	3.633669	-3.633669
O	13.488593	3.633669	-1.294454
O	13.488593	1.294454	-3.633669
Pr	8.622998	-1.232031	-3.696092
Pr	13.550426	1.232031	-1.232031
Pr	16.014139	-1.232031	-1.232031
Pr	11.086712	1.232031	-3.696092
Ir	0.000000	-4.928123	-4.928123
Ir	2.463714	-7.392185	-7.392185
O	3.757403	-6.097731	-6.097731
O	-1.170025	-3.758515	-8.686638
O	1.170025	-6.097731	-8.686638
O	1.293689	-3.633669	-6.222577
O	6.097452	-3.758515	-6.097731
O	1.293689	-1.294454	-8.561792
O	3.633738	-1.294454	-6.222577
O	3.633738	-3.633669	-8.561792
Pr	-1.231857	-6.160154	-8.624215
Pr	3.695571	-3.696092	-6.160154
Pr	6.159284	-6.160154	-6.160154
Pr	1.231857	-3.696092	-8.624215
Ir	4.927427	0.000000	-4.928123
Ir	7.391141	-2.464062	-7.392185
O	8.684830	-1.169608	-6.097731
O	3.757403	1.169608	-8.686638
O	6.097452	-1.169608	-8.686638
O	6.221117	1.294454	-6.222577
O	11.024880	1.169608	-6.097731
O	6.221117	3.633669	-8.561792
O	8.561166	3.633669	-6.222577
O	8.561166	1.294454	-8.561792
Pr	3.695571	-1.232031	-8.624215
Pr	8.622998	1.232031	-6.160154
Pr	11.086712	-1.232031	-6.160154
Pr	6.159284	1.232031	-8.624215
