40

La	0.000000	0.000000	0.000000
O	2.239650	0.000000	2.239650
O	0.000000	2.239650	2.239650
O	2.239650	2.239650	0.000000
Pa	2.239650	2.239650	2.239650
La	0.000000	0.000000	4.479303
O	2.239650	0.000000	6.718953
O	0.000000	2.239650	6.718953
O	2.239650	2.239650	4.479303
Pa	2.239650	2.239650	6.718953
La	0.000000	4.479303	0.000000
O	2.239650	4.479303	2.239650
O	0.000000	6.718953	2.239650
O	2.239650	6.718953	0.000000
Pa	2.239650	6.718953	2.239650
La	0.000000	4.479303	4.479303
O	2.239650	4.479303	6.718953
O	0.000000	6.718953	6.718953
O	2.239650	6.718953	4.479303
Pa	2.239650	6.718953	6.718953
La	4.479303	0.000000	0.000000
O	6.718953	0.000000	2.239650
O	4.479303	2.239650	2.239650
O	6.718953	2.239650	0.000000
Pa	6.718953	2.239650	2.239650
La	4.479303	0.000000	4.479303
O	6.718953	0.000000	6.718953
O	4.479303	2.239650	6.718953
O	6.718953	2.239650	4.479303
Pa	6.718953	2.239650	6.718953
La	4.479303	4.479303	0.000000
O	6.718953	4.479303	2.239650
O	4.479303	6.718953	2.239650
O	6.718953	6.718953	0.000000
Pa	6.718953	6.718953	2.239650
La	4.479303	4.479303	4.479303
O	6.718953	4.479303	6.718953
O	4.479303	6.718953	6.718953
O	6.718953	6.718953	4.479303
Pa	6.718953	6.718953	6.718953
