40

Ge	1.889818	1.889818	1.889818
O	0.000000	1.889818	1.889818
O	1.889818	0.000000	1.889818
O	1.889818	1.889818	0.000000
Pt	0.000000	0.000000	0.000000
Ge	1.889818	1.889818	5.669453
O	0.000000	1.889818	5.669453
O	1.889818	0.000000	5.669453
O	1.889818	1.889818	3.779636
Pt	0.000000	0.000000	3.779636
Ge	1.889818	5.669453	1.889818
O	0.000000	5.669453	1.889818
O	1.889818	3.779636	1.889818
O	1.889818	5.669453	0.000000
Pt	0.000000	3.779636	0.000000
Ge	1.889818	5.669453	5.669453
O	0.000000	5.669453	5.669453
O	1.889818	3.779636	5.669453
O	1.889818	5.669453	3.779636
Pt	0.000000	3.779636	3.779636
Ge	5.669453	1.889818	1.889818
O	3.779636	1.889818	1.889818
O	5.669453	0.000000	1.889818
O	5.669453	1.889818	0.000000
Pt	3.779636	0.000000	0.000000
Ge	5.669453	1.889818	5.669453
O	3.779636	1.889818	5.669453
O	5.669453	0.000000	5.669453
O	5.669453	1.889818	3.779636
Pt	3.779636	0.000000	3.779636
Ge	5.669453	5.669453	1.889818
O	3.779636	5.669453	1.889818
O	5.669453	3.779636	1.889818
O	5.669453	5.669453	0.000000
Pt	3.779636	3.779636	0.000000
Ge	5.669453	5.669453	5.669453
O	3.779636	5.669453	5.669453
O	5.669453	3.779636	5.669453
O	5.669453	5.669453	3.779636
Pt	3.779636	3.779636	3.779636
