40

Li	1.814451	1.814451	1.814451
O	0.000000	1.814451	1.814451
O	1.814451	0.000000	1.814451
O	1.814451	1.814451	0.000000
Se	0.000000	0.000000	0.000000
Li	1.814451	1.814451	5.443352
O	0.000000	1.814451	5.443352
O	1.814451	0.000000	5.443352
O	1.814451	1.814451	3.628901
Se	0.000000	0.000000	3.628901
Li	1.814451	5.443352	1.814451
O	0.000000	5.443352	1.814451
O	1.814451	3.628901	1.814451
O	1.814451	5.443352	0.000000
Se	0.000000	3.628901	0.000000
Li	1.814451	5.443352	5.443352
O	0.000000	5.443352	5.443352
O	1.814451	3.628901	5.443352
O	1.814451	5.443352	3.628901
Se	0.000000	3.628901	3.628901
Li	5.443352	1.814451	1.814451
O	3.628901	1.814451	1.814451
O	5.443352	0.000000	1.814451
O	5.443352	1.814451	0.000000
Se	3.628901	0.000000	0.000000
Li	5.443352	1.814451	5.443352
O	3.628901	1.814451	5.443352
O	5.443352	0.000000	5.443352
O	5.443352	1.814451	3.628901
Se	3.628901	0.000000	3.628901
Li	5.443352	5.443352	1.814451
O	3.628901	5.443352	1.814451
O	5.443352	3.628901	1.814451
O	5.443352	5.443352	0.000000
Se	3.628901	3.628901	0.000000
Li	5.443352	5.443352	5.443352
O	3.628901	5.443352	5.443352
O	5.443352	3.628901	5.443352
O	5.443352	5.443352	3.628901
Se	3.628901	3.628901	3.628901
