40

As	0.000000	0.000000	0.000000
O	2.187990	0.000000	2.187990
O	0.000000	2.187990	2.187990
O	2.187990	2.187990	0.000000
Sm	2.187990	2.187990	2.187990
As	0.000000	0.000000	4.375985
O	2.187990	0.000000	6.563975
O	0.000000	2.187990	6.563975
O	2.187990	2.187990	4.375985
Sm	2.187990	2.187990	6.563975
As	0.000000	4.375985	0.000000
O	2.187990	4.375985	2.187990
O	0.000000	6.563975	2.187990
O	2.187990	6.563975	0.000000
Sm	2.187990	6.563975	2.187990
As	0.000000	4.375985	4.375985
O	2.187990	4.375985	6.563975
O	0.000000	6.563975	6.563975
O	2.187990	6.563975	4.375985
Sm	2.187990	6.563975	6.563975
As	4.375985	0.000000	0.000000
O	6.563975	0.000000	2.187990
O	4.375985	2.187990	2.187990
O	6.563975	2.187990	0.000000
Sm	6.563975	2.187990	2.187990
As	4.375985	0.000000	4.375985
O	6.563975	0.000000	6.563975
O	4.375985	2.187990	6.563975
O	6.563975	2.187990	4.375985
Sm	6.563975	2.187990	6.563975
As	4.375985	4.375985	0.000000
O	6.563975	4.375985	2.187990
O	4.375985	6.563975	2.187990
O	6.563975	6.563975	0.000000
Sm	6.563975	6.563975	2.187990
As	4.375985	4.375985	4.375985
O	6.563975	4.375985	6.563975
O	4.375985	6.563975	6.563975
O	6.563975	6.563975	4.375985
Sm	6.563975	6.563975	6.563975
