112

O	3.762329	-1.066705	-1.066705
O	-1.067037	1.066705	-3.763926
O	1.067037	-1.066705	-3.763926
O	1.347646	1.348611	-1.348611
O	5.896402	1.066705	-1.066705
O	1.347646	3.482021	-3.482021
O	3.481720	3.482021	-1.348611
O	3.481720	1.348611	-3.482021
Pr	0.000000	0.000000	0.000000
Pr	2.414683	-2.415316	-2.415316
Tm	-1.207341	-1.207658	-3.622974
Tm	3.622024	1.207658	-1.207658
Tm	6.036707	-1.207658	-1.207658
Tm	1.207341	1.207658	-3.622974
O	8.591695	3.763926	-1.066705
O	3.762329	5.897336	-3.763926
O	5.896402	3.763926	-3.763926
O	6.177012	6.179242	-1.348611
O	10.725768	5.897336	-1.066705
O	6.177012	8.312652	-3.482021
O	8.311085	8.312652	-1.348611
O	8.311085	6.179242	-3.482021
Pr	4.829366	4.830631	0.000000
Pr	7.244048	2.415316	-2.415316
Tm	3.622024	3.622974	-3.622974
Tm	8.451390	6.038289	-1.207658
Tm	10.866073	3.622974	-1.207658
Tm	6.036707	6.038289	-3.622974
O	-1.067037	-1.066705	-5.897336
O	-5.896402	1.066705	-8.594558
O	-3.762329	-1.066705	-8.594558
O	-3.481720	1.348611	-6.179242
O	1.067037	1.066705	-5.897336
O	-3.481720	3.482021	-8.312652
O	-1.347646	3.482021	-6.179242
O	-1.347646	1.348611	-8.312652
Pr	-4.829366	0.000000	-4.830631
Pr	-2.414683	-2.415316	-7.245947
Tm	-6.036707	-1.207658	-8.453605
Tm	-1.207341	1.207658	-6.038289
Tm	1.207341	-1.207658	-6.038289
Tm	-3.622024	1.207658	-8.453605
O	3.762329	3.763926	-5.897336
O	-1.067037	5.897336	-8.594558
O	1.067037	3.763926	-8.594558
O	1.347646	6.179242	-6.179242
O	5.896402	5.897336	-5.897336
O	1.347646	8.312652	-8.312652
O	3.481720	8.312652	-6.179242
O	3.481720	6.179242	-8.312652
Pr	0.000000	4.830631	-4.830631
Pr	2.414683	2.415316	-7.245947
Tm	-1.207341	3.622974	-8.453605
Tm	3.622024	6.038289	-6.038289
Tm	6.036707	3.622974	-6.038289
Tm	1.207341	6.038289	-8.453605
O	8.591695	-5.897336	-1.066705
O	3.762329	-3.763926	-3.763926
O	5.896402	-5.897336	-3.763926
O	6.177012	-3.482021	-1.348611
O	10.725768	-3.763926	-1.066705
O	6.177012	-1.348611	-3.482021
O	8.311085	-1.348611	-1.348611
O	8.311085	-3.482021	-3.482021
Pr	4.829366	-4.830631	0.000000
Pr	7.244048	-7.245947	-2.415316
Tm	3.622024	-6.038289	-3.622974
Tm	8.451390	-3.622974	-1.207658
Tm	10.866073	-6.038289	-1.207658
Tm	6.036707	-3.622974	-3.622974
O	13.421060	-1.066705	-1.066705
O	8.591695	1.066705	-3.763926
O	10.725768	-1.066705	-3.763926
O	11.006377	1.348611	-1.348611
O	15.555134	1.066705	-1.066705
O	11.006377	3.482021	-3.482021
O	13.140451	3.482021	-1.348611
O	13.140451	1.348611	-3.482021
Pr	9.658731	0.000000	0.000000
Pr	12.073414	-2.415316	-2.415316
Tm	8.451390	-1.207658	-3.622974
Tm	13.280756	1.207658	-1.207658
Tm	15.695438	-1.207658	-1.207658
Tm	10.866073	1.207658	-3.622974
O	3.762329	-5.897336	-5.897336
O	-1.067037	-3.763926	-8.594558
O	1.067037	-5.897336	-8.594558
O	1.347646	-3.482021	-6.179242
O	5.896402	-3.763926	-5.897336
O	1.347646	-1.348611	-8.312652
O	3.481720	-1.348611	-6.179242
O	3.481720	-3.482021	-8.312652
Pr	0.000000	-4.830631	-4.830631
Pr	2.414683	-7.245947	-7.245947
Tm	-1.207341	-6.038289	-8.453605
Tm	3.622024	-3.622974	-6.038289
Tm	6.036707	-6.038289	-6.038289
Tm	1.207341	-3.622974	-8.453605
O	8.591695	-1.066705	-5.897336
O	3.762329	1.066705	-8.594558
O	5.896402	-1.066705	-8.594558
O	6.177012	1.348611	-6.179242
O	10.725768	1.066705	-5.897336
O	6.177012	3.482021	-8.312652
O	8.311085	3.482021	-6.179242
O	8.311085	1.348611	-8.312652
Pr	4.829366	0.000000	-4.830631
Pr	7.244048	-2.415316	-7.245947
Tm	3.622024	-1.207658	-8.453605
Tm	8.451390	1.207658	-6.038289
Tm	10.866073	-1.207658	-6.038289
Tm	6.036707	1.207658	-8.453605
