40

Mg	1.890842	1.890842	1.890842
O	1.890842	1.890842	0.000000
O	0.000000	1.890842	1.890842
O	1.890842	0.000000	1.890842
Tm	0.000000	0.000000	0.000000
Mg	1.890842	1.890842	5.672527
O	1.890842	1.890842	3.781685
O	0.000000	1.890842	5.672527
O	1.890842	0.000000	5.672527
Tm	0.000000	0.000000	3.781685
Mg	1.890842	5.672527	1.890842
O	1.890842	5.672527	0.000000
O	0.000000	5.672527	1.890842
O	1.890842	3.781685	1.890842
Tm	0.000000	3.781685	0.000000
Mg	1.890842	5.672527	5.672527
O	1.890842	5.672527	3.781685
O	0.000000	5.672527	5.672527
O	1.890842	3.781685	5.672527
Tm	0.000000	3.781685	3.781685
Mg	5.672527	1.890842	1.890842
O	5.672527	1.890842	0.000000
O	3.781685	1.890842	1.890842
O	5.672527	0.000000	1.890842
Tm	3.781685	0.000000	0.000000
Mg	5.672527	1.890842	5.672527
O	5.672527	1.890842	3.781685
O	3.781685	1.890842	5.672527
O	5.672527	0.000000	5.672527
Tm	3.781685	0.000000	3.781685
Mg	5.672527	5.672527	1.890842
O	5.672527	5.672527	0.000000
O	3.781685	5.672527	1.890842
O	5.672527	3.781685	1.890842
Tm	3.781685	3.781685	0.000000
Mg	5.672527	5.672527	5.672527
O	5.672527	5.672527	3.781685
O	3.781685	5.672527	5.672527
O	5.672527	3.781685	5.672527
Tm	3.781685	3.781685	3.781685
