40

Cu	1.920817	1.920817	1.920817
O	1.920817	1.920817	0.000000
O	0.000000	1.920817	1.920817
O	1.920817	0.000000	1.920817
Th	0.000000	0.000000	0.000000
Cu	1.920817	1.920817	5.762451
O	1.920817	1.920817	3.841634
O	0.000000	1.920817	5.762451
O	1.920817	0.000000	5.762451
Th	0.000000	0.000000	3.841634
Cu	1.920817	5.762451	1.920817
O	1.920817	5.762451	0.000000
O	0.000000	5.762451	1.920817
O	1.920817	3.841634	1.920817
Th	0.000000	3.841634	0.000000
Cu	1.920817	5.762451	5.762451
O	1.920817	5.762451	3.841634
O	0.000000	5.762451	5.762451
O	1.920817	3.841634	5.762451
Th	0.000000	3.841634	3.841634
Cu	5.762451	1.920817	1.920817
O	5.762451	1.920817	0.000000
O	3.841634	1.920817	1.920817
O	5.762451	0.000000	1.920817
Th	3.841634	0.000000	0.000000
Cu	5.762451	1.920817	5.762451
O	5.762451	1.920817	3.841634
O	3.841634	1.920817	5.762451
O	5.762451	0.000000	5.762451
Th	3.841634	0.000000	3.841634
Cu	5.762451	5.762451	1.920817
O	5.762451	5.762451	0.000000
O	3.841634	5.762451	1.920817
O	5.762451	3.841634	1.920817
Th	3.841634	3.841634	0.000000
Cu	5.762451	5.762451	5.762451
O	5.762451	5.762451	3.841634
O	3.841634	5.762451	5.762451
O	5.762451	3.841634	5.762451
Th	3.841634	3.841634	3.841634
