40

Fe	0.000000	0.000000	0.000000
O	0.000000	1.972031	1.972031
O	1.972031	0.000000	1.972031
O	1.972031	1.972031	0.000000
Tc	1.972031	1.972031	1.972031
Fe	0.000000	0.000000	3.944062
O	0.000000	1.972031	5.916094
O	1.972031	0.000000	5.916094
O	1.972031	1.972031	3.944062
Tc	1.972031	1.972031	5.916094
Fe	0.000000	3.944062	0.000000
O	0.000000	5.916094	1.972031
O	1.972031	3.944062	1.972031
O	1.972031	5.916094	0.000000
Tc	1.972031	5.916094	1.972031
Fe	0.000000	3.944062	3.944062
O	0.000000	5.916094	5.916094
O	1.972031	3.944062	5.916094
O	1.972031	5.916094	3.944062
Tc	1.972031	5.916094	5.916094
Fe	3.944062	0.000000	0.000000
O	3.944062	1.972031	1.972031
O	5.916094	0.000000	1.972031
O	5.916094	1.972031	0.000000
Tc	5.916094	1.972031	1.972031
Fe	3.944062	0.000000	3.944062
O	3.944062	1.972031	5.916094
O	5.916094	0.000000	5.916094
O	5.916094	1.972031	3.944062
Tc	5.916094	1.972031	5.916094
Fe	3.944062	3.944062	0.000000
O	3.944062	5.916094	1.972031
O	5.916094	3.944062	1.972031
O	5.916094	5.916094	0.000000
Tc	5.916094	5.916094	1.972031
Fe	3.944062	3.944062	3.944062
O	3.944062	5.916094	5.916094
O	5.916094	3.944062	5.916094
O	5.916094	5.916094	3.944062
Tc	5.916094	5.916094	5.916094
