40

Fe	0.000000	0.000000	0.000000
O	0.000000	1.973810	1.973810
O	1.973810	0.000000	1.973810
O	1.973810	1.973810	0.000000
Tc	1.973810	1.973810	1.973810
Fe	0.000000	0.000000	3.947619
O	0.000000	1.973810	5.921429
O	1.973810	0.000000	5.921429
O	1.973810	1.973810	3.947619
Tc	1.973810	1.973810	5.921429
Fe	0.000000	3.947619	0.000000
O	0.000000	5.921429	1.973810
O	1.973810	3.947619	1.973810
O	1.973810	5.921429	0.000000
Tc	1.973810	5.921429	1.973810
Fe	0.000000	3.947619	3.947619
O	0.000000	5.921429	5.921429
O	1.973810	3.947619	5.921429
O	1.973810	5.921429	3.947619
Tc	1.973810	5.921429	5.921429
Fe	3.947619	0.000000	0.000000
O	3.947619	1.973810	1.973810
O	5.921429	0.000000	1.973810
O	5.921429	1.973810	0.000000
Tc	5.921429	1.973810	1.973810
Fe	3.947619	0.000000	3.947619
O	3.947619	1.973810	5.921429
O	5.921429	0.000000	5.921429
O	5.921429	1.973810	3.947619
Tc	5.921429	1.973810	5.921429
Fe	3.947619	3.947619	0.000000
O	3.947619	5.921429	1.973810
O	5.921429	3.947619	1.973810
O	5.921429	5.921429	0.000000
Tc	5.921429	5.921429	1.973810
Fe	3.947619	3.947619	3.947619
O	3.947619	5.921429	5.921429
O	5.921429	3.947619	5.921429
O	5.921429	5.921429	3.947619
Tc	5.921429	5.921429	5.921429
