40

Bi	2.160845	2.160845	2.160845
O	0.000000	2.160845	2.160845
O	2.160845	0.000000	2.160845
O	2.160845	2.160845	0.000000
Rb	0.000000	0.000000	0.000000
Bi	2.160845	2.160845	6.482535
O	0.000000	2.160845	6.482535
O	2.160845	0.000000	6.482535
O	2.160845	2.160845	4.321690
Rb	0.000000	0.000000	4.321690
Bi	2.160845	6.482535	2.160845
O	0.000000	6.482535	2.160845
O	2.160845	4.321690	2.160845
O	2.160845	6.482535	0.000000
Rb	0.000000	4.321690	0.000000
Bi	2.160845	6.482535	6.482535
O	0.000000	6.482535	6.482535
O	2.160845	4.321690	6.482535
O	2.160845	6.482535	4.321690
Rb	0.000000	4.321690	4.321690
Bi	6.482535	2.160845	2.160845
O	4.321690	2.160845	2.160845
O	6.482535	0.000000	2.160845
O	6.482535	2.160845	0.000000
Rb	4.321690	0.000000	0.000000
Bi	6.482535	2.160845	6.482535
O	4.321690	2.160845	6.482535
O	6.482535	0.000000	6.482535
O	6.482535	2.160845	4.321690
Rb	4.321690	0.000000	4.321690
Bi	6.482535	6.482535	2.160845
O	4.321690	6.482535	2.160845
O	6.482535	4.321690	2.160845
O	6.482535	6.482535	0.000000
Rb	4.321690	4.321690	0.000000
Bi	6.482535	6.482535	6.482535
O	4.321690	6.482535	6.482535
O	6.482535	4.321690	6.482535
O	6.482535	6.482535	4.321690
Rb	4.321690	4.321690	4.321690
