40

Bi	0.000000	0.000000	0.000000
O	0.000000	2.223612	2.223612
O	2.223612	0.000000	2.223612
O	2.223612	2.223612	0.000000
Rb	2.223612	2.223612	2.223612
Bi	0.000000	0.000000	4.447223
O	0.000000	2.223612	6.670835
O	2.223612	0.000000	6.670835
O	2.223612	2.223612	4.447223
Rb	2.223612	2.223612	6.670835
Bi	0.000000	4.447223	0.000000
O	0.000000	6.670835	2.223612
O	2.223612	4.447223	2.223612
O	2.223612	6.670835	0.000000
Rb	2.223612	6.670835	2.223612
Bi	0.000000	4.447223	4.447223
O	0.000000	6.670835	6.670835
O	2.223612	4.447223	6.670835
O	2.223612	6.670835	4.447223
Rb	2.223612	6.670835	6.670835
Bi	4.447223	0.000000	0.000000
O	4.447223	2.223612	2.223612
O	6.670835	0.000000	2.223612
O	6.670835	2.223612	0.000000
Rb	6.670835	2.223612	2.223612
Bi	4.447223	0.000000	4.447223
O	4.447223	2.223612	6.670835
O	6.670835	0.000000	6.670835
O	6.670835	2.223612	4.447223
Rb	6.670835	2.223612	6.670835
Bi	4.447223	4.447223	0.000000
O	4.447223	6.670835	2.223612
O	6.670835	4.447223	2.223612
O	6.670835	6.670835	0.000000
Rb	6.670835	6.670835	2.223612
Bi	4.447223	4.447223	4.447223
O	4.447223	6.670835	6.670835
O	6.670835	4.447223	6.670835
O	6.670835	6.670835	4.447223
Rb	6.670835	6.670835	6.670835
