40

Ca	2.115432	2.115432	2.115432
O	2.115432	2.115432	0.000000
O	2.115432	0.000000	2.115432
O	0.000000	2.115432	2.115432
Sn	0.000000	0.000000	0.000000
Ca	2.115432	2.115432	6.346279
O	2.115432	2.115432	4.230848
O	2.115432	0.000000	6.346279
O	0.000000	2.115432	6.346279
Sn	0.000000	0.000000	4.230848
Ca	2.115432	6.346279	2.115432
O	2.115432	6.346279	0.000000
O	2.115432	4.230848	2.115432
O	0.000000	6.346279	2.115432
Sn	0.000000	4.230848	0.000000
Ca	2.115432	6.346279	6.346279
O	2.115432	6.346279	4.230848
O	2.115432	4.230848	6.346279
O	0.000000	6.346279	6.346279
Sn	0.000000	4.230848	4.230848
Ca	6.346279	2.115432	2.115432
O	6.346279	2.115432	0.000000
O	6.346279	0.000000	2.115432
O	4.230848	2.115432	2.115432
Sn	4.230848	0.000000	0.000000
Ca	6.346279	2.115432	6.346279
O	6.346279	2.115432	4.230848
O	6.346279	0.000000	6.346279
O	4.230848	2.115432	6.346279
Sn	4.230848	0.000000	4.230848
Ca	6.346279	6.346279	2.115432
O	6.346279	6.346279	0.000000
O	6.346279	4.230848	2.115432
O	4.230848	6.346279	2.115432
Sn	4.230848	4.230848	0.000000
Ca	6.346279	6.346279	6.346279
O	6.346279	6.346279	4.230848
O	6.346279	4.230848	6.346279
O	4.230848	6.346279	6.346279
Sn	4.230848	4.230848	4.230848
