40

Li	0.000000	0.000000	0.000000
Nb	1.984337	1.984337	1.984337
O	0.000000	1.984337	1.984337
O	1.984337	0.000000	1.984337
O	1.984337	1.984337	0.000000
Li	0.000000	0.000000	3.968673
Nb	1.984337	1.984337	5.953010
O	0.000000	1.984337	5.953010
O	1.984337	0.000000	5.953010
O	1.984337	1.984337	3.968673
Li	0.000000	3.968673	0.000000
Nb	1.984337	5.953010	1.984337
O	0.000000	5.953010	1.984337
O	1.984337	3.968673	1.984337
O	1.984337	5.953010	0.000000
Li	0.000000	3.968673	3.968673
Nb	1.984337	5.953010	5.953010
O	0.000000	5.953010	5.953010
O	1.984337	3.968673	5.953010
O	1.984337	5.953010	3.968673
Li	3.968673	0.000000	0.000000
Nb	5.953010	1.984337	1.984337
O	3.968673	1.984337	1.984337
O	5.953010	0.000000	1.984337
O	5.953010	1.984337	0.000000
Li	3.968673	0.000000	3.968673
Nb	5.953010	1.984337	5.953010
O	3.968673	1.984337	5.953010
O	5.953010	0.000000	5.953010
O	5.953010	1.984337	3.968673
Li	3.968673	3.968673	0.000000
Nb	5.953010	5.953010	1.984337
O	3.968673	5.953010	1.984337
O	5.953010	3.968673	1.984337
O	5.953010	5.953010	0.000000
Li	3.968673	3.968673	3.968673
Nb	5.953010	5.953010	5.953010
O	3.968673	5.953010	5.953010
O	5.953010	3.968673	5.953010
O	5.953010	5.953010	3.968673
