40

Cr	0.000000	0.000000	0.000000
O	2.207708	2.207708	0.000000
O	2.207708	0.000000	2.207708
O	0.000000	2.207708	2.207708
Rb	2.207708	2.207708	2.207708
Cr	0.000000	0.000000	4.415421
O	2.207708	2.207708	4.415421
O	2.207708	0.000000	6.623129
O	0.000000	2.207708	6.623129
Rb	2.207708	2.207708	6.623129
Cr	0.000000	4.415421	0.000000
O	2.207708	6.623129	0.000000
O	2.207708	4.415421	2.207708
O	0.000000	6.623129	2.207708
Rb	2.207708	6.623129	2.207708
Cr	0.000000	4.415421	4.415421
O	2.207708	6.623129	4.415421
O	2.207708	4.415421	6.623129
O	0.000000	6.623129	6.623129
Rb	2.207708	6.623129	6.623129
Cr	4.415421	0.000000	0.000000
O	6.623129	2.207708	0.000000
O	6.623129	0.000000	2.207708
O	4.415421	2.207708	2.207708
Rb	6.623129	2.207708	2.207708
Cr	4.415421	0.000000	4.415421
O	6.623129	2.207708	4.415421
O	6.623129	0.000000	6.623129
O	4.415421	2.207708	6.623129
Rb	6.623129	2.207708	6.623129
Cr	4.415421	4.415421	0.000000
O	6.623129	6.623129	0.000000
O	6.623129	4.415421	2.207708
O	4.415421	6.623129	2.207708
Rb	6.623129	6.623129	2.207708
Cr	4.415421	4.415421	4.415421
O	6.623129	6.623129	4.415421
O	6.623129	4.415421	6.623129
O	4.415421	6.623129	6.623129
Rb	6.623129	6.623129	6.623129
