40

Cr	0.000000	0.000000	0.000000
O	2.165114	2.165114	0.000000
O	2.165114	0.000000	2.165114
O	0.000000	2.165114	2.165114
Rb	2.165114	2.165114	2.165114
Cr	0.000000	0.000000	4.330229
O	2.165114	2.165114	4.330229
O	2.165114	0.000000	6.495343
O	0.000000	2.165114	6.495343
Rb	2.165114	2.165114	6.495343
Cr	0.000000	4.330229	0.000000
O	2.165114	6.495343	0.000000
O	2.165114	4.330229	2.165114
O	0.000000	6.495343	2.165114
Rb	2.165114	6.495343	2.165114
Cr	0.000000	4.330229	4.330229
O	2.165114	6.495343	4.330229
O	2.165114	4.330229	6.495343
O	0.000000	6.495343	6.495343
Rb	2.165114	6.495343	6.495343
Cr	4.330229	0.000000	0.000000
O	6.495343	2.165114	0.000000
O	6.495343	0.000000	2.165114
O	4.330229	2.165114	2.165114
Rb	6.495343	2.165114	2.165114
Cr	4.330229	0.000000	4.330229
O	6.495343	2.165114	4.330229
O	6.495343	0.000000	6.495343
O	4.330229	2.165114	6.495343
Rb	6.495343	2.165114	6.495343
Cr	4.330229	4.330229	0.000000
O	6.495343	6.495343	0.000000
O	6.495343	4.330229	2.165114
O	4.330229	6.495343	2.165114
Rb	6.495343	6.495343	2.165114
Cr	4.330229	4.330229	4.330229
O	6.495343	6.495343	4.330229
O	6.495343	4.330229	6.495343
O	4.330229	6.495343	6.495343
Rb	6.495343	6.495343	6.495343
