40

Ag	2.030650	2.030650	2.030650
Au	0.000000	0.000000	0.000000
O	2.030650	2.030650	0.000000
O	2.030650	0.000000	2.030650
O	0.000000	2.030650	2.030650
Ag	2.030650	2.030650	6.091949
Au	0.000000	0.000000	4.061299
O	2.030650	2.030650	4.061299
O	2.030650	0.000000	6.091949
O	0.000000	2.030650	6.091949
Ag	2.030650	6.091949	2.030650
Au	0.000000	4.061299	0.000000
O	2.030650	6.091949	0.000000
O	2.030650	4.061299	2.030650
O	0.000000	6.091949	2.030650
Ag	2.030650	6.091949	6.091949
Au	0.000000	4.061299	4.061299
O	2.030650	6.091949	4.061299
O	2.030650	4.061299	6.091949
O	0.000000	6.091949	6.091949
Ag	6.091949	2.030650	2.030650
Au	4.061299	0.000000	0.000000
O	6.091949	2.030650	0.000000
O	6.091949	0.000000	2.030650
O	4.061299	2.030650	2.030650
Ag	6.091949	2.030650	6.091949
Au	4.061299	0.000000	4.061299
O	6.091949	2.030650	4.061299
O	6.091949	0.000000	6.091949
O	4.061299	2.030650	6.091949
Ag	6.091949	6.091949	2.030650
Au	4.061299	4.061299	0.000000
O	6.091949	6.091949	0.000000
O	6.091949	4.061299	2.030650
O	4.061299	6.091949	2.030650
Ag	6.091949	6.091949	6.091949
Au	4.061299	4.061299	4.061299
O	6.091949	6.091949	4.061299
O	6.091949	4.061299	6.091949
O	4.061299	6.091949	6.091949
