40

Ag	0.000000	0.000000	0.000000
Au	2.016430	2.016430	2.016430
O	2.016430	0.000000	2.016430
O	0.000000	2.016430	2.016430
O	2.016430	2.016430	0.000000
Ag	0.000000	0.000000	4.032847
Au	2.016430	2.016430	6.049277
O	2.016430	0.000000	6.049277
O	0.000000	2.016430	6.049277
O	2.016430	2.016430	4.032847
Ag	0.000000	4.032847	0.000000
Au	2.016430	6.049277	2.016430
O	2.016430	4.032847	2.016430
O	0.000000	6.049277	2.016430
O	2.016430	6.049277	0.000000
Ag	0.000000	4.032847	4.032847
Au	2.016430	6.049277	6.049277
O	2.016430	4.032847	6.049277
O	0.000000	6.049277	6.049277
O	2.016430	6.049277	4.032847
Ag	4.032847	0.000000	0.000000
Au	6.049277	2.016430	2.016430
O	6.049277	0.000000	2.016430
O	4.032847	2.016430	2.016430
O	6.049277	2.016430	0.000000
Ag	4.032847	0.000000	4.032847
Au	6.049277	2.016430	6.049277
O	6.049277	0.000000	6.049277
O	4.032847	2.016430	6.049277
O	6.049277	2.016430	4.032847
Ag	4.032847	4.032847	0.000000
Au	6.049277	6.049277	2.016430
O	6.049277	4.032847	2.016430
O	4.032847	6.049277	2.016430
O	6.049277	6.049277	0.000000
Ag	4.032847	4.032847	4.032847
Au	6.049277	6.049277	6.049277
O	6.049277	4.032847	6.049277
O	4.032847	6.049277	6.049277
O	6.049277	6.049277	4.032847
