40

Mo	1.925873	1.925873	1.925873
Ni	0.000000	0.000000	0.000000
O	1.925873	1.925873	0.000000
O	1.925873	0.000000	1.925873
O	0.000000	1.925873	1.925873
Mo	1.925873	1.925873	5.777629
Ni	0.000000	0.000000	3.851756
O	1.925873	1.925873	3.851756
O	1.925873	0.000000	5.777629
O	0.000000	1.925873	5.777629
Mo	1.925873	5.777629	1.925873
Ni	0.000000	3.851756	0.000000
O	1.925873	5.777629	0.000000
O	1.925873	3.851756	1.925873
O	0.000000	5.777629	1.925873
Mo	1.925873	5.777629	5.777629
Ni	0.000000	3.851756	3.851756
O	1.925873	5.777629	3.851756
O	1.925873	3.851756	5.777629
O	0.000000	5.777629	5.777629
Mo	5.777629	1.925873	1.925873
Ni	3.851756	0.000000	0.000000
O	5.777629	1.925873	0.000000
O	5.777629	0.000000	1.925873
O	3.851756	1.925873	1.925873
Mo	5.777629	1.925873	5.777629
Ni	3.851756	0.000000	3.851756
O	5.777629	1.925873	3.851756
O	5.777629	0.000000	5.777629
O	3.851756	1.925873	5.777629
Mo	5.777629	5.777629	1.925873
Ni	3.851756	3.851756	0.000000
O	5.777629	5.777629	0.000000
O	5.777629	3.851756	1.925873
O	3.851756	5.777629	1.925873
Mo	5.777629	5.777629	5.777629
Ni	3.851756	3.851756	3.851756
O	5.777629	5.777629	3.851756
O	5.777629	3.851756	5.777629
O	3.851756	5.777629	5.777629
