40

Cd	2.022420	2.022420	2.022420
Mg	0.000000	0.000000	0.000000
O	2.022420	2.022420	0.000000
O	0.000000	2.022420	2.022420
O	2.022420	0.000000	2.022420
Cd	2.022420	2.022420	6.067264
Mg	0.000000	0.000000	4.044844
O	2.022420	2.022420	4.044844
O	0.000000	2.022420	6.067264
O	2.022420	0.000000	6.067264
Cd	2.022420	6.067264	2.022420
Mg	0.000000	4.044844	0.000000
O	2.022420	6.067264	0.000000
O	0.000000	6.067264	2.022420
O	2.022420	4.044844	2.022420
Cd	2.022420	6.067264	6.067264
Mg	0.000000	4.044844	4.044844
O	2.022420	6.067264	4.044844
O	0.000000	6.067264	6.067264
O	2.022420	4.044844	6.067264
Cd	6.067264	2.022420	2.022420
Mg	4.044844	0.000000	0.000000
O	6.067264	2.022420	0.000000
O	4.044844	2.022420	2.022420
O	6.067264	0.000000	2.022420
Cd	6.067264	2.022420	6.067264
Mg	4.044844	0.000000	4.044844
O	6.067264	2.022420	4.044844
O	4.044844	2.022420	6.067264
O	6.067264	0.000000	6.067264
Cd	6.067264	6.067264	2.022420
Mg	4.044844	4.044844	0.000000
O	6.067264	6.067264	0.000000
O	4.044844	6.067264	2.022420
O	6.067264	4.044844	2.022420
Cd	6.067264	6.067264	6.067264
Mg	4.044844	4.044844	4.044844
O	6.067264	6.067264	4.044844
O	4.044844	6.067264	6.067264
O	6.067264	4.044844	6.067264
