40

Cd	0.000000	0.000000	0.000000
Mg	1.965852	1.965852	1.965852
O	0.000000	1.965852	1.965852
O	1.965852	0.000000	1.965852
O	1.965852	1.965852	0.000000
Cd	0.000000	0.000000	3.931704
Mg	1.965852	1.965852	5.897557
O	0.000000	1.965852	5.897557
O	1.965852	0.000000	5.897557
O	1.965852	1.965852	3.931704
Cd	0.000000	3.931704	0.000000
Mg	1.965852	5.897557	1.965852
O	0.000000	5.897557	1.965852
O	1.965852	3.931704	1.965852
O	1.965852	5.897557	0.000000
Cd	0.000000	3.931704	3.931704
Mg	1.965852	5.897557	5.897557
O	0.000000	5.897557	5.897557
O	1.965852	3.931704	5.897557
O	1.965852	5.897557	3.931704
Cd	3.931704	0.000000	0.000000
Mg	5.897557	1.965852	1.965852
O	3.931704	1.965852	1.965852
O	5.897557	0.000000	1.965852
O	5.897557	1.965852	0.000000
Cd	3.931704	0.000000	3.931704
Mg	5.897557	1.965852	5.897557
O	3.931704	1.965852	5.897557
O	5.897557	0.000000	5.897557
O	5.897557	1.965852	3.931704
Cd	3.931704	3.931704	0.000000
Mg	5.897557	5.897557	1.965852
O	3.931704	5.897557	1.965852
O	5.897557	3.931704	1.965852
O	5.897557	5.897557	0.000000
Cd	3.931704	3.931704	3.931704
Mg	5.897557	5.897557	5.897557
O	3.931704	5.897557	5.897557
O	5.897557	3.931704	5.897557
O	5.897557	5.897557	3.931704
