40

Co	1.881116	1.881116	1.881116
F	0.000000	1.881116	1.881116
F	1.881116	0.000000	1.881116
F	1.881116	1.881116	0.000000
O	0.000000	0.000000	0.000000
Co	1.881116	1.881116	5.643347
F	0.000000	1.881116	5.643347
F	1.881116	0.000000	5.643347
F	1.881116	1.881116	3.762231
O	0.000000	0.000000	3.762231
Co	1.881116	5.643347	1.881116
F	0.000000	5.643347	1.881116
F	1.881116	3.762231	1.881116
F	1.881116	5.643347	0.000000
O	0.000000	3.762231	0.000000
Co	1.881116	5.643347	5.643347
F	0.000000	5.643347	5.643347
F	1.881116	3.762231	5.643347
F	1.881116	5.643347	3.762231
O	0.000000	3.762231	3.762231
Co	5.643347	1.881116	1.881116
F	3.762231	1.881116	1.881116
F	5.643347	0.000000	1.881116
F	5.643347	1.881116	0.000000
O	3.762231	0.000000	0.000000
Co	5.643347	1.881116	5.643347
F	3.762231	1.881116	5.643347
F	5.643347	0.000000	5.643347
F	5.643347	1.881116	3.762231
O	3.762231	0.000000	3.762231
Co	5.643347	5.643347	1.881116
F	3.762231	5.643347	1.881116
F	5.643347	3.762231	1.881116
F	5.643347	5.643347	0.000000
O	3.762231	3.762231	0.000000
Co	5.643347	5.643347	5.643347
F	3.762231	5.643347	5.643347
F	5.643347	3.762231	5.643347
F	5.643347	5.643347	3.762231
O	3.762231	3.762231	3.762231
