40

Co	0.000000	0.000000	0.000000
F	0.000000	1.926481	1.926481
F	1.926481	0.000000	1.926481
F	1.926481	1.926481	0.000000
O	1.926481	1.926481	1.926481
Co	0.000000	0.000000	3.852962
F	0.000000	1.926481	5.779442
F	1.926481	0.000000	5.779442
F	1.926481	1.926481	3.852962
O	1.926481	1.926481	5.779442
Co	0.000000	3.852962	0.000000
F	0.000000	5.779442	1.926481
F	1.926481	3.852962	1.926481
F	1.926481	5.779442	0.000000
O	1.926481	5.779442	1.926481
Co	0.000000	3.852962	3.852962
F	0.000000	5.779442	5.779442
F	1.926481	3.852962	5.779442
F	1.926481	5.779442	3.852962
O	1.926481	5.779442	5.779442
Co	3.852962	0.000000	0.000000
F	3.852962	1.926481	1.926481
F	5.779442	0.000000	1.926481
F	5.779442	1.926481	0.000000
O	5.779442	1.926481	1.926481
Co	3.852962	0.000000	3.852962
F	3.852962	1.926481	5.779442
F	5.779442	0.000000	5.779442
F	5.779442	1.926481	3.852962
O	5.779442	1.926481	5.779442
Co	3.852962	3.852962	0.000000
F	3.852962	5.779442	1.926481
F	5.779442	3.852962	1.926481
F	5.779442	5.779442	0.000000
O	5.779442	5.779442	1.926481
Co	3.852962	3.852962	3.852962
F	3.852962	5.779442	5.779442
F	5.779442	3.852962	5.779442
F	5.779442	5.779442	3.852962
O	5.779442	5.779442	5.779442
