112

In	2.244528	-2.244528	0.000000
In	4.489056	0.000000	0.000000
In	0.000000	2.244528	-2.244528
In	2.244528	0.000000	-2.244528
Mg	1.122264	-3.366792	-3.366792
Mg	3.366792	3.366792	-1.122264
O	2.290824	-0.046296	-0.046296
O	4.442759	-2.198231	-0.046296
O	2.290824	-2.198231	-2.198231
O	0.046296	0.046296	-2.290824
O	4.442759	-0.046296	-2.198231
O	2.198231	2.198231	-2.290824
O	0.046296	2.198231	-4.442759
O	2.198231	0.046296	-4.442759
In	6.733584	2.244528	0.000000
In	8.978111	4.489056	0.000000
In	4.489056	6.733584	-2.244528
In	6.733584	4.489056	-2.244528
Mg	5.611320	1.122264	-3.366792
Mg	7.855847	7.855847	-1.122264
O	6.779880	4.442759	-0.046296
O	8.931815	2.290824	-0.046296
O	6.779880	2.290824	-2.198231
O	4.535352	4.535352	-2.290824
O	8.931815	4.442759	-2.198231
O	6.687287	6.687287	-2.290824
O	4.535352	6.687287	-4.442759
O	6.687287	4.535352	-4.442759
In	-2.244528	-2.244528	-4.489056
In	0.000000	0.000000	-4.489056
In	-4.489056	2.244528	-6.733584
In	-2.244528	0.000000	-6.733584
Mg	-3.366792	-3.366792	-7.855847
Mg	-1.122264	3.366792	-5.611320
O	-2.198231	-0.046296	-4.535352
O	-0.046296	-2.198231	-4.535352
O	-2.198231	-2.198231	-6.687287
O	-4.442759	0.046296	-6.779880
O	-0.046296	-0.046296	-6.687287
O	-2.290824	2.198231	-6.779880
O	-4.442759	2.198231	-8.931815
O	-2.290824	0.046296	-8.931815
In	2.244528	2.244528	-4.489056
In	4.489056	4.489056	-4.489056
In	0.000000	6.733584	-6.733584
In	2.244528	4.489056	-6.733584
Mg	1.122264	1.122264	-7.855847
Mg	3.366792	7.855847	-5.611320
O	2.290824	4.442759	-4.535352
O	4.442759	2.290824	-4.535352
O	2.290824	2.290824	-6.687287
O	0.046296	4.535352	-6.779880
O	4.442759	4.442759	-6.687287
O	2.198231	6.687287	-6.779880
O	0.046296	6.687287	-8.931815
O	2.198231	4.535352	-8.931815
In	6.733584	-6.733584	0.000000
In	8.978111	-4.489056	0.000000
In	4.489056	-2.244528	-2.244528
In	6.733584	-4.489056	-2.244528
Mg	5.611320	-7.855847	-3.366792
Mg	7.855847	-1.122264	-1.122264
O	6.779880	-4.535352	-0.046296
O	8.931815	-6.687287	-0.046296
O	6.779880	-6.687287	-2.198231
O	4.535352	-4.442759	-2.290824
O	8.931815	-4.535352	-2.198231
O	6.687287	-2.290824	-2.290824
O	4.535352	-2.290824	-4.442759
O	6.687287	-4.442759	-4.442759
In	11.222639	-2.244528	0.000000
In	13.467167	0.000000	0.000000
In	8.978111	2.244528	-2.244528
In	11.222639	0.000000	-2.244528
Mg	10.100375	-3.366792	-3.366792
Mg	12.344903	3.366792	-1.122264
O	11.268936	-0.046296	-0.046296
O	13.420871	-2.198231	-0.046296
O	11.268936	-2.198231	-2.198231
O	9.024408	0.046296	-2.290824
O	13.420871	-0.046296	-2.198231
O	11.176343	2.198231	-2.290824
O	9.024408	2.198231	-4.442759
O	11.176343	0.046296	-4.442759
In	2.244528	-6.733584	-4.489056
In	4.489056	-4.489056	-4.489056
In	0.000000	-2.244528	-6.733584
In	2.244528	-4.489056	-6.733584
Mg	1.122264	-7.855847	-7.855847
Mg	3.366792	-1.122264	-5.611320
O	2.290824	-4.535352	-4.535352
O	4.442759	-6.687287	-4.535352
O	2.290824	-6.687287	-6.687287
O	0.046296	-4.442759	-6.779880
O	4.442759	-4.535352	-6.687287
O	2.198231	-2.290824	-6.779880
O	0.046296	-2.290824	-8.931815
O	2.198231	-4.442759	-8.931815
In	6.733584	-2.244528	-4.489056
In	8.978111	0.000000	-4.489056
In	4.489056	2.244528	-6.733584
In	6.733584	0.000000	-6.733584
Mg	5.611320	-3.366792	-7.855847
Mg	7.855847	3.366792	-5.611320
O	6.779880	-0.046296	-4.535352
O	8.931815	-2.198231	-4.535352
O	6.779880	-2.198231	-6.687287
O	4.535352	0.046296	-6.779880
O	8.931815	-0.046296	-6.687287
O	6.687287	2.198231	-6.779880
O	4.535352	2.198231	-8.931815
O	6.687287	0.046296	-8.931815
