112

La	0.000000	0.000000	0.000000
La	2.272067	-2.272407	-2.272407
Mg	-1.136034	-1.136203	-3.408610
Mg	3.408101	1.136203	-1.136203
Mg	5.680168	-1.136203	-1.136203
Mg	1.136034	1.136203	-3.408610
O	3.561805	-0.981753	-0.981753
O	-0.982330	0.981753	-3.563061
O	0.982330	-0.981753	-3.563061
O	1.289738	1.290654	-1.290654
O	5.526465	0.981753	-0.981753
O	1.289738	3.254160	-3.254160
O	3.254397	3.254160	-1.290654
O	3.254397	1.290654	-3.254160
La	4.544135	4.544814	0.000000
La	6.816202	2.272407	-2.272407
Mg	3.408101	3.408610	-3.408610
Mg	7.952236	5.681017	-1.136203
Mg	10.224303	3.408610	-1.136203
Mg	5.680168	5.681017	-3.408610
O	8.105940	3.563061	-0.981753
O	3.561805	5.526567	-3.563061
O	5.526465	3.563061	-3.563061
O	5.833872	5.835468	-1.290654
O	10.070599	5.526567	-0.981753
O	5.833872	7.798974	-3.254160
O	7.798532	7.798974	-1.290654
O	7.798532	5.835468	-3.254160
La	-4.544135	0.000000	-4.544814
La	-2.272067	-2.272407	-6.817221
Mg	-5.680168	-1.136203	-7.953424
Mg	-1.136034	1.136203	-5.681017
Mg	1.136034	-1.136203	-5.681017
Mg	-3.408101	1.136203	-7.953424
O	-0.982330	-0.981753	-5.526567
O	-5.526465	0.981753	-8.107875
O	-3.561805	-0.981753	-8.107875
O	-3.254397	1.290654	-5.835468
O	0.982330	0.981753	-5.526567
O	-3.254397	3.254160	-7.798974
O	-1.289738	3.254160	-5.835468
O	-1.289738	1.290654	-7.798974
La	0.000000	4.544814	-4.544814
La	2.272067	2.272407	-6.817221
Mg	-1.136034	3.408610	-7.953424
Mg	3.408101	5.681017	-5.681017
Mg	5.680168	3.408610	-5.681017
Mg	1.136034	5.681017	-7.953424
O	3.561805	3.563061	-5.526567
O	-0.982330	5.526567	-8.107875
O	0.982330	3.563061	-8.107875
O	1.289738	5.835468	-5.835468
O	5.526465	5.526567	-5.526567
O	1.289738	7.798974	-7.798974
O	3.254397	7.798974	-5.835468
O	3.254397	5.835468	-7.798974
La	4.544135	-4.544814	0.000000
La	6.816202	-6.817221	-2.272407
Mg	3.408101	-5.681017	-3.408610
Mg	7.952236	-3.408610	-1.136203
Mg	10.224303	-5.681017	-1.136203
Mg	5.680168	-3.408610	-3.408610
O	8.105940	-5.526567	-0.981753
O	3.561805	-3.563061	-3.563061
O	5.526465	-5.526567	-3.563061
O	5.833872	-3.254160	-1.290654
O	10.070599	-3.563061	-0.981753
O	5.833872	-1.290654	-3.254160
O	7.798532	-1.290654	-1.290654
O	7.798532	-3.254160	-3.254160
La	9.088270	0.000000	0.000000
La	11.360337	-2.272407	-2.272407
Mg	7.952236	-1.136203	-3.408610
Mg	12.496371	1.136203	-1.136203
Mg	14.768438	-1.136203	-1.136203
Mg	10.224303	1.136203	-3.408610
O	12.650075	-0.981753	-0.981753
O	8.105940	0.981753	-3.563061
O	10.070599	-0.981753	-3.563061
O	10.378007	1.290654	-1.290654
O	14.614734	0.981753	-0.981753
O	10.378007	3.254160	-3.254160
O	12.342667	3.254160	-1.290654
O	12.342667	1.290654	-3.254160
La	0.000000	-4.544814	-4.544814
La	2.272067	-6.817221	-6.817221
Mg	-1.136034	-5.681017	-7.953424
Mg	3.408101	-3.408610	-5.681017
Mg	5.680168	-5.681017	-5.681017
Mg	1.136034	-3.408610	-7.953424
O	3.561805	-5.526567	-5.526567
O	-0.982330	-3.563061	-8.107875
O	0.982330	-5.526567	-8.107875
O	1.289738	-3.254160	-5.835468
O	5.526465	-3.563061	-5.526567
O	1.289738	-1.290654	-7.798974
O	3.254397	-1.290654	-5.835468
O	3.254397	-3.254160	-7.798974
La	4.544135	0.000000	-4.544814
La	6.816202	-2.272407	-6.817221
Mg	3.408101	-1.136203	-7.953424
Mg	7.952236	1.136203	-5.681017
Mg	10.224303	-1.136203	-5.681017
Mg	5.680168	1.136203	-7.953424
O	8.105940	-0.981753	-5.526567
O	3.561805	0.981753	-8.107875
O	5.526465	-0.981753	-8.107875
O	5.833872	1.290654	-5.835468
O	10.070599	0.981753	-5.526567
O	5.833872	3.254160	-7.798974
O	7.798532	3.254160	-5.835468
O	7.798532	1.290654	-7.798974
