112

Cu	0.000000	0.000000	0.000000
Cu	2.364568	-2.365159	-2.365159
O	3.634802	-1.094047	-1.094047
O	-1.094333	1.094047	-3.636271
O	1.094333	-1.094047	-3.636271
O	1.270235	1.271112	-1.271112
O	5.823478	1.094047	-1.094047
O	1.270235	3.459196	-3.459196
O	3.458911	3.459196	-1.271112
O	3.458911	1.271112	-3.459196
Te	-1.182284	-1.182574	-3.547733
Te	3.546852	1.182574	-1.182574
Te	1.182284	1.182574	-3.547733
Te	5.911429	-1.182574	-1.182574
Cu	4.729141	4.730310	0.000000
Cu	7.093708	2.365151	-2.365159
O	8.363943	3.636263	-1.094047
O	3.634808	5.824356	-3.636271
O	5.823474	3.636263	-3.636271
O	5.999375	6.001422	-1.271112
O	10.552619	5.824356	-1.094047
O	5.999375	8.189505	-3.459196
O	8.188051	8.189505	-1.271112
O	8.188051	6.001422	-3.459196
Te	3.546857	3.547735	-3.547733
Te	8.275992	5.912884	-1.182574
Te	5.911424	5.912884	-3.547733
Te	10.640570	3.547735	-1.182574
Cu	-4.729141	0.000000	-4.730310
Cu	-2.364573	-2.365159	-7.095468
O	-1.094338	-1.094047	-5.824356
O	-5.823474	1.094047	-8.366580
O	-3.634808	-1.094047	-8.366580
O	-3.458906	1.271112	-6.001422
O	1.094338	1.094047	-5.824356
O	-3.458906	3.459196	-8.189505
O	-1.270230	3.459196	-6.001422
O	-1.270230	1.271112	-8.189505
Te	-5.911424	-1.182574	-8.278043
Te	-1.182289	1.182574	-5.912884
Te	-3.546857	1.182574	-8.278043
Te	1.182288	-1.182574	-5.912884
Cu	0.000000	4.730310	-4.730310
Cu	2.364568	2.365151	-7.095468
O	3.634802	3.636263	-5.824356
O	-1.094333	5.824356	-8.366580
O	1.094333	3.636263	-8.366580
O	1.270235	6.001422	-6.001422
O	5.823478	5.824356	-5.824356
O	1.270235	8.189505	-8.189505
O	3.458911	8.189505	-6.001422
O	3.458911	6.001422	-8.189505
Te	-1.182284	3.547735	-8.278043
Te	3.546852	5.912884	-5.912884
Te	1.182284	5.912884	-8.278043
Te	5.911429	3.547735	-5.912884
Cu	4.729141	-4.730310	0.000000
Cu	7.093708	-7.095468	-2.365159
O	8.363943	-5.824356	-1.094047
O	3.634808	-3.636263	-3.636271
O	5.823474	-5.824356	-3.636271
O	5.999375	-3.459198	-1.271112
O	10.552619	-3.636263	-1.094047
O	5.999375	-1.271114	-3.459196
O	8.188051	-1.271114	-1.271112
O	8.188051	-3.459198	-3.459196
Te	3.546857	-5.912884	-3.547733
Te	8.275992	-3.547735	-1.182574
Te	5.911424	-3.547735	-3.547733
Te	10.640570	-5.912884	-1.182574
Cu	9.458281	0.000000	0.000000
Cu	11.822849	-2.365159	-2.365159
O	13.093084	-1.094047	-1.094047
O	8.363948	1.094047	-3.636271
O	10.552614	-1.094047	-3.636271
O	10.728516	1.271112	-1.271112
O	15.281760	1.094047	-1.094047
O	10.728516	3.459196	-3.459196
O	12.917192	3.459196	-1.271112
O	12.917192	1.271112	-3.459196
Te	8.275997	-1.182574	-3.547733
Te	13.005133	1.182574	-1.182574
Te	10.640565	1.182574	-3.547733
Te	15.369710	-1.182574	-1.182574
Cu	0.000000	-4.730310	-4.730310
Cu	2.364568	-7.095468	-7.095468
O	3.634802	-5.824356	-5.824356
O	-1.094333	-3.636263	-8.366580
O	1.094333	-5.824356	-8.366580
O	1.270235	-3.459198	-6.001422
O	5.823478	-3.636263	-5.824356
O	1.270235	-1.271114	-8.189505
O	3.458911	-1.271114	-6.001422
O	3.458911	-3.459198	-8.189505
Te	-1.182284	-5.912884	-8.278043
Te	3.546852	-3.547735	-5.912884
Te	1.182284	-3.547735	-8.278043
Te	5.911429	-5.912884	-5.912884
Cu	4.729141	0.000000	-4.730310
Cu	7.093708	-2.365159	-7.095468
O	8.363943	-1.094047	-5.824356
O	3.634808	1.094047	-8.366580
O	5.823474	-1.094047	-8.366580
O	5.999375	1.271112	-6.001422
O	10.552619	1.094047	-5.824356
O	5.999375	3.459196	-8.189505
O	8.188051	3.459196	-6.001422
O	8.188051	1.271112	-8.189505
Te	3.546857	-1.182574	-8.278043
Te	8.275992	1.182574	-5.912884
Te	5.911424	1.182574	-8.278043
Te	10.640570	-1.182574	-5.912884
