320

Eu	5.246167	0.000000	-2.623088
Eu	5.246167	-2.623088	0.000000
Eu	2.623088	0.000000	-5.246167
Eu	2.623088	-5.246167	0.000000
Eu	-0.000000	-2.623088	-5.246167
Eu	-0.000000	-5.246167	-2.623088
O	3.518070	1.312958	-1.312958
O	3.518070	-1.312958	1.312958
O	6.978146	1.316763	-1.316763
O	6.978146	-1.316763	1.316763
O	3.929404	1.731969	-3.929404
O	3.929404	-3.929404	1.731969
O	1.312958	1.312958	-3.518070
O	1.312958	-3.518070	1.312958
O	6.974274	-1.312958	-1.312958
O	3.514198	-1.316763	-1.316763
O	-1.312958	-1.312958	-3.518070
O	-1.312958	-3.518070	-1.312958
O	1.316763	-1.316763	-3.514198
O	1.316763	-3.514198	-1.316763
O	1.316763	1.316763	-6.978146
O	1.316763	-6.978146	1.316763
O	3.933209	-1.728107	-3.933209
O	3.933209	-3.933209	-1.728107
O	-1.731969	-3.929404	-3.929404
O	1.728107	-3.933209	-3.933209
O	1.312958	-1.312958	-6.974274
O	1.312958	-6.974274	-1.312958
O	-1.316763	-1.316763	-6.978146
O	-1.316763	-6.978146	-1.316763
Sb	2.621897	2.621897	-2.621897
Sb	2.586892	0.000000	-0.000000
Sb	2.621897	-2.621897	2.621897
Sb	7.905452	-0.000000	0.000000
Sb	0.000000	0.000000	-2.586892
Sb	0.000000	-2.586892	0.000000
Sb	-2.621897	-2.621897	-2.621897
Sb	2.624280	-2.624280	-2.624280
Sb	-0.000000	-0.000000	-7.905452
Sb	-0.000000	-7.905452	-0.000000
Eu	-0.000005	-5.246172	-7.869260
Eu	-0.000005	-7.869260	-5.246172
Eu	-2.623083	-5.246172	-10.492339
Eu	-2.623083	-10.492339	-5.246172
Eu	-5.246172	-7.869260	-10.492339
Eu	-5.246172	-10.492339	-7.869260
O	-1.728102	-3.933214	-6.559130
O	-1.728102	-6.559130	-3.933214
O	1.731974	-3.929409	-6.562935
O	1.731974	-6.562935	-3.929409
O	-1.316768	-3.514203	-9.175576
O	-1.316768	-9.175576	-3.514203
O	-3.933214	-3.933214	-8.764241
O	-3.933214	-8.764241	-3.933214
O	1.728102	-6.559130	-6.559130
O	-1.731974	-6.562935	-6.562935
O	-6.559130	-6.559130	-8.764241
O	-6.559130	-8.764241	-6.559130
O	-3.929409	-6.562935	-8.760370
O	-3.929409	-8.760370	-6.562935
O	-3.929409	-3.929409	-12.224318
O	-3.929409	-12.224318	-3.929409
O	-1.312963	-6.974279	-9.179381
O	-1.312963	-9.179381	-6.974279
O	-6.978141	-9.175576	-9.175576
O	-3.518065	-9.179381	-9.179381
O	-3.933214	-6.559130	-12.220446
O	-3.933214	-12.220446	-6.559130
O	-6.562935	-6.562935	-12.224318
O	-6.562935	-12.224318	-6.562935
Sb	-2.624275	-2.624275	-7.868069
Sb	-2.659280	-5.246172	-5.246172
Sb	-2.624275	-7.868069	-2.624275
Sb	2.659280	-5.246172	-5.246172
Sb	-5.246172	-5.246172	-7.833063
Sb	-5.246172	-7.833063	-5.246172
Sb	-7.868069	-7.868069	-7.868069
Sb	-2.621892	-7.870452	-7.870452
Sb	-5.246172	-5.246172	-13.151624
Sb	-5.246172	-13.151624	-5.246172
Eu	10.492339	-5.246172	2.623083
Eu	10.492339	-7.869260	5.246172
Eu	7.869260	-5.246172	0.000005
Eu	7.869260	-10.492339	5.246172
Eu	5.246172	-7.869260	0.000005
Eu	5.246172	-10.492339	2.623083
O	8.764241	-3.933214	3.933214
O	8.764241	-6.559130	6.559130
O	12.224318	-3.929409	3.929409
O	12.224318	-6.562935	6.562935
O	9.175576	-3.514203	1.316768
O	9.175576	-9.175576	6.978141
O	6.559130	-3.933214	1.728102
O	6.559130	-8.764241	6.559130
O	12.220446	-6.559130	3.933214
O	8.760370	-6.562935	3.929409
O	3.933214	-6.559130	1.728102
O	3.933214	-8.764241	3.933214
O	6.562935	-6.562935	1.731974
O	6.562935	-8.760370	3.929409
O	6.562935	-3.929409	-1.731974
O	6.562935	-12.224318	6.562935
O	9.179381	-6.974279	1.312963
O	9.179381	-9.179381	3.518065
O	3.514203	-9.175576	1.316768
O	6.974279	-9.179381	1.312963
O	6.559130	-6.559130	-1.728102
O	6.559130	-12.220446	3.933214
O	3.929409	-6.562935	-1.731974
O	3.929409	-12.224318	3.929409
Sb	7.868069	-2.624275	2.624275
Sb	7.833063	-5.246172	5.246172
Sb	7.868069	-7.868069	7.868069
Sb	13.151624	-5.246172	5.246172
Sb	5.246172	-5.246172	2.659280
Sb	5.246172	-7.833063	5.246172
Sb	2.624275	-7.868069	2.624275
Sb	7.870452	-7.870452	2.621892
Sb	5.246172	-5.246172	-2.659280
Sb	5.246172	-13.151624	5.246172
Eu	5.246167	-10.492344	-2.623088
Eu	5.246167	-13.115432	0.000000
Eu	2.623088	-10.492344	-5.246167
Eu	2.623088	-15.738511	0.000000
Eu	-0.000000	-13.115432	-5.246167
Eu	-0.000000	-15.738511	-2.623088
O	3.518070	-9.179386	-1.312958
O	3.518070	-11.805302	1.312958
O	6.978146	-9.175581	-1.316763
O	6.978146	-11.809107	1.316763
O	3.929404	-8.760375	-3.929404
O	3.929404	-14.421748	1.731969
O	1.312958	-9.179386	-3.518070
O	1.312958	-14.010413	1.312958
O	6.974274	-11.805302	-1.312958
O	3.514198	-11.809107	-1.316763
O	-1.312958	-11.805302	-3.518070
O	-1.312958	-14.010413	-1.312958
O	1.316763	-11.809107	-3.514198
O	1.316763	-14.006542	-1.316763
O	1.316763	-9.175581	-6.978146
O	1.316763	-17.470489	1.316763
O	3.933209	-12.220451	-3.933209
O	3.933209	-14.425552	-1.728107
O	-1.731969	-14.421748	-3.929404
O	1.728107	-14.425552	-3.933209
O	1.312958	-11.805302	-6.974274
O	1.312958	-17.466618	-1.312958
O	-1.316763	-11.809107	-6.978146
O	-1.316763	-17.470489	-1.316763
Sb	2.621897	-7.870447	-2.621897
Sb	2.586892	-10.492344	0.000000
Sb	2.621897	-13.114241	2.621897
Sb	7.905452	-10.492344	0.000000
Sb	0.000000	-10.492344	-2.586892
Sb	0.000000	-13.079235	0.000000
Sb	-2.621897	-13.114241	-2.621897
Sb	2.624280	-13.116624	-2.624280
Sb	0.000000	-10.492344	-7.905452
Sb	0.000000	-18.397796	0.000000
Eu	10.492339	5.246172	-7.869260
Eu	10.492339	2.623083	-5.246172
Eu	7.869260	5.246172	-10.492339
Eu	7.869260	0.000005	-5.246172
Eu	5.246172	2.623083	-10.492339
Eu	5.246172	0.000005	-7.869260
O	8.764241	6.559130	-6.559130
O	8.764241	3.933214	-3.933214
O	12.224318	6.562935	-6.562935
O	12.224318	3.929409	-3.929409
O	9.175576	6.978141	-9.175576
O	9.175576	1.316768	-3.514203
O	6.559130	6.559130	-8.764241
O	6.559130	1.728102	-3.933214
O	12.220446	3.933214	-6.559130
O	8.760370	3.929409	-6.562935
O	3.933214	3.933214	-8.764241
O	3.933214	1.728102	-6.559130
O	6.562935	3.929409	-8.760370
O	6.562935	1.731974	-6.562935
O	6.562935	6.562935	-12.224318
O	6.562935	-1.731974	-3.929409
O	9.179381	3.518065	-9.179381
O	9.179381	1.312963	-6.974279
O	3.514203	1.316768	-9.175576
O	6.974279	1.312963	-9.179381
O	6.559130	3.933214	-12.220446
O	6.559130	-1.728102	-6.559130
O	3.929409	3.929409	-12.224318
O	3.929409	-1.731974	-6.562935
Sb	7.868069	7.868069	-7.868069
Sb	7.833063	5.246172	-5.246172
Sb	7.868069	2.624275	-2.624275
Sb	13.151624	5.246172	-5.246172
Sb	5.246172	5.246172	-7.833063
Sb	5.246172	2.659280	-5.246172
Sb	2.624275	2.624275	-7.868069
Sb	7.870452	2.621892	-7.870452
Sb	5.246172	5.246172	-13.151624
Sb	5.246172	-2.659280	-5.246172
Eu	5.246167	0.000000	-13.115432
Eu	5.246167	-2.623088	-10.492344
Eu	2.623088	0.000000	-15.738511
Eu	2.623088	-5.246167	-10.492344
Eu	-0.000000	-2.623088	-15.738511
Eu	-0.000000	-5.246167	-13.115432
O	3.518070	1.312958	-11.805302
O	3.518070	-1.312958	-9.179386
O	6.978146	1.316763	-11.809107
O	6.978146	-1.316763	-9.175581
O	3.929404	1.731969	-14.421748
O	3.929404	-3.929404	-8.760375
O	1.312958	1.312958	-14.010413
O	1.312958	-3.518070	-9.179386
O	6.974274	-1.312958	-11.805302
O	3.514198	-1.316763	-11.809107
O	-1.312958	-1.312958	-14.010413
O	-1.312958	-3.518070	-11.805302
O	1.316763	-1.316763	-14.006542
O	1.316763	-3.514198	-11.809107
O	1.316763	1.316763	-17.470489
O	1.316763	-6.978146	-9.175581
O	3.933209	-1.728107	-14.425552
O	3.933209	-3.933209	-12.220451
O	-1.731969	-3.929404	-14.421748
O	1.728107	-3.933209	-14.425552
O	1.312958	-1.312958	-17.466618
O	1.312958	-6.974274	-11.805302
O	-1.316763	-1.316763	-17.470489
O	-1.316763	-6.978146	-11.809107
Sb	2.621897	2.621897	-13.114241
Sb	2.586892	0.000000	-10.492344
Sb	2.621897	-2.621897	-7.870447
Sb	7.905452	0.000000	-10.492344
Sb	0.000000	0.000000	-13.079235
Sb	0.000000	-2.586892	-10.492344
Sb	-2.621897	-2.621897	-13.114241
Sb	2.624280	-2.624280	-13.116624
Sb	0.000000	0.000000	-18.397796
Sb	0.000000	-7.905452	-10.492344
Eu	15.738511	0.000000	-2.623088
Eu	15.738511	-2.623088	0.000000
Eu	13.115432	0.000000	-5.246167
Eu	13.115432	-5.246167	0.000000
Eu	10.492344	-2.623088	-5.246167
Eu	10.492344	-5.246167	-2.623088
O	14.010413	1.312958	-1.312958
O	14.010413	-1.312958	1.312958
O	17.470489	1.316763	-1.316763
O	17.470489	-1.316763	1.316763
O	14.421748	1.731969	-3.929404
O	14.421748	-3.929404	1.731969
O	11.805302	1.312958	-3.518070
O	11.805302	-3.518070	1.312958
O	17.466618	-1.312958	-1.312958
O	14.006542	-1.316763	-1.316763
O	9.179386	-1.312958	-3.518070
O	9.179386	-3.518070	-1.312958
O	11.809107	-1.316763	-3.514198
O	11.809107	-3.514198	-1.316763
O	11.809107	1.316763	-6.978146
O	11.809107	-6.978146	1.316763
O	14.425552	-1.728107	-3.933209
O	14.425552	-3.933209	-1.728107
O	8.760375	-3.929404	-3.929404
O	12.220451	-3.933209	-3.933209
O	11.805302	-1.312958	-6.974274
O	11.805302	-6.974274	-1.312958
O	9.175581	-1.316763	-6.978146
O	9.175581	-6.978146	-1.316763
Sb	13.114241	2.621897	-2.621897
Sb	13.079235	0.000000	0.000000
Sb	13.114241	-2.621897	2.621897
Sb	18.397796	0.000000	0.000000
Sb	10.492344	0.000000	-2.586892
Sb	10.492344	-2.586892	0.000000
Sb	7.870447	-2.621897	-2.621897
Sb	13.116624	-2.624280	-2.624280
Sb	10.492344	0.000000	-7.905452
Sb	10.492344	-7.905452	0.000000
Eu	10.492339	-5.246172	-7.869260
Eu	10.492339	-7.869260	-5.246172
Eu	7.869260	-5.246172	-10.492339
Eu	7.869260	-10.492339	-5.246172
Eu	5.246172	-7.869260	-10.492339
Eu	5.246172	-10.492339	-7.869260
O	8.764241	-3.933214	-6.559130
O	8.764241	-6.559130	-3.933214
O	12.224318	-3.929409	-6.562935
O	12.224318	-6.562935	-3.929409
O	9.175576	-3.514203	-9.175576
O	9.175576	-9.175576	-3.514203
O	6.559130	-3.933214	-8.764241
O	6.559130	-8.764241	-3.933214
O	12.220446	-6.559130	-6.559130
O	8.760370	-6.562935	-6.562935
O	3.933214	-6.559130	-8.764241
O	3.933214	-8.764241	-6.559130
O	6.562935	-6.562935	-8.760370
O	6.562935	-8.760370	-6.562935
O	6.562935	-3.929409	-12.224318
O	6.562935	-12.224318	-3.929409
O	9.179381	-6.974279	-9.179381
O	9.179381	-9.179381	-6.974279
O	3.514203	-9.175576	-9.175576
O	6.974279	-9.179381	-9.179381
O	6.559130	-6.559130	-12.220446
O	6.559130	-12.220446	-6.559130
O	3.929409	-6.562935	-12.224318
O	3.929409	-12.224318	-6.562935
Sb	7.868069	-2.624275	-7.868069
Sb	7.833063	-5.246172	-5.246172
Sb	7.868069	-7.868069	-2.624275
Sb	13.151624	-5.246172	-5.246172
Sb	5.246172	-5.246172	-7.833063
Sb	5.246172	-7.833063	-5.246172
Sb	2.624275	-7.868069	-7.868069
Sb	7.870452	-7.870452	-7.870452
Sb	5.246172	-5.246172	-13.151624
Sb	5.246172	-13.151624	-5.246172
