40

Er	2.099120	2.099120	2.099120
O	2.099120	2.099120	0.000000
O	0.000000	2.099120	2.099120
O	2.099120	0.000000	2.099120
Tm	0.000000	0.000000	0.000000
Er	2.099120	2.099120	6.297368
O	2.099120	2.099120	4.198248
O	0.000000	2.099120	6.297368
O	2.099120	0.000000	6.297368
Tm	0.000000	0.000000	4.198248
Er	2.099120	6.297368	2.099120
O	2.099120	6.297368	0.000000
O	0.000000	6.297368	2.099120
O	2.099120	4.198248	2.099120
Tm	0.000000	4.198248	0.000000
Er	2.099120	6.297368	6.297368
O	2.099120	6.297368	4.198248
O	0.000000	6.297368	6.297368
O	2.099120	4.198248	6.297368
Tm	0.000000	4.198248	4.198248
Er	6.297368	2.099120	2.099120
O	6.297368	2.099120	0.000000
O	4.198248	2.099120	2.099120
O	6.297368	0.000000	2.099120
Tm	4.198248	0.000000	0.000000
Er	6.297368	2.099120	6.297368
O	6.297368	2.099120	4.198248
O	4.198248	2.099120	6.297368
O	6.297368	0.000000	6.297368
Tm	4.198248	0.000000	4.198248
Er	6.297368	6.297368	2.099120
O	6.297368	6.297368	0.000000
O	4.198248	6.297368	2.099120
O	6.297368	4.198248	2.099120
Tm	4.198248	4.198248	0.000000
Er	6.297368	6.297368	6.297368
O	6.297368	6.297368	4.198248
O	4.198248	6.297368	6.297368
O	6.297368	4.198248	6.297368
Tm	4.198248	4.198248	4.198248
