40

Mg	0.000000	0.000000	0.000000
O	1.888900	1.888900	0.000000
O	0.000000	1.888900	1.888900
O	1.888900	0.000000	1.888900
Zn	1.888900	1.888900	1.888900
Mg	0.000000	0.000000	3.777809
O	1.888900	1.888900	3.777809
O	0.000000	1.888900	5.666709
O	1.888900	0.000000	5.666709
Zn	1.888900	1.888900	5.666709
Mg	0.000000	3.777809	0.000000
O	1.888900	5.666709	0.000000
O	0.000000	5.666709	1.888900
O	1.888900	3.777809	1.888900
Zn	1.888900	5.666709	1.888900
Mg	0.000000	3.777809	3.777809
O	1.888900	5.666709	3.777809
O	0.000000	5.666709	5.666709
O	1.888900	3.777809	5.666709
Zn	1.888900	5.666709	5.666709
Mg	3.777809	0.000000	0.000000
O	5.666709	1.888900	0.000000
O	3.777809	1.888900	1.888900
O	5.666709	0.000000	1.888900
Zn	5.666709	1.888900	1.888900
Mg	3.777809	0.000000	3.777809
O	5.666709	1.888900	3.777809
O	3.777809	1.888900	5.666709
O	5.666709	0.000000	5.666709
Zn	5.666709	1.888900	5.666709
Mg	3.777809	3.777809	0.000000
O	5.666709	5.666709	0.000000
O	3.777809	5.666709	1.888900
O	5.666709	3.777809	1.888900
Zn	5.666709	5.666709	1.888900
Mg	3.777809	3.777809	3.777809
O	5.666709	5.666709	3.777809
O	3.777809	5.666709	5.666709
O	5.666709	3.777809	5.666709
Zn	5.666709	5.666709	5.666709
