40

Mg	1.900580	1.900580	1.900580
O	1.900580	1.900580	0.000000
O	0.000000	1.900580	1.900580
O	1.900580	0.000000	1.900580
Zn	0.000000	0.000000	0.000000
Mg	1.900580	1.900580	5.701734
O	1.900580	1.900580	3.801154
O	0.000000	1.900580	5.701734
O	1.900580	0.000000	5.701734
Zn	0.000000	0.000000	3.801154
Mg	1.900580	5.701734	1.900580
O	1.900580	5.701734	0.000000
O	0.000000	5.701734	1.900580
O	1.900580	3.801154	1.900580
Zn	0.000000	3.801154	0.000000
Mg	1.900580	5.701734	5.701734
O	1.900580	5.701734	3.801154
O	0.000000	5.701734	5.701734
O	1.900580	3.801154	5.701734
Zn	0.000000	3.801154	3.801154
Mg	5.701734	1.900580	1.900580
O	5.701734	1.900580	0.000000
O	3.801154	1.900580	1.900580
O	5.701734	0.000000	1.900580
Zn	3.801154	0.000000	0.000000
Mg	5.701734	1.900580	5.701734
O	5.701734	1.900580	3.801154
O	3.801154	1.900580	5.701734
O	5.701734	0.000000	5.701734
Zn	3.801154	0.000000	3.801154
Mg	5.701734	5.701734	1.900580
O	5.701734	5.701734	0.000000
O	3.801154	5.701734	1.900580
O	5.701734	3.801154	1.900580
Zn	3.801154	3.801154	0.000000
Mg	5.701734	5.701734	5.701734
O	5.701734	5.701734	3.801154
O	3.801154	5.701734	5.701734
O	5.701734	3.801154	5.701734
Zn	3.801154	3.801154	3.801154
