40

In	0.000000	0.000000	0.000000
O	2.224206	2.224206	0.000000
O	2.224206	0.000000	2.224206
O	0.000000	2.224206	2.224206
Sr	2.224206	2.224206	2.224206
In	0.000000	0.000000	4.448406
O	2.224206	2.224206	4.448406
O	2.224206	0.000000	6.672612
O	0.000000	2.224206	6.672612
Sr	2.224206	2.224206	6.672612
In	0.000000	4.448406	0.000000
O	2.224206	6.672612	0.000000
O	2.224206	4.448406	2.224206
O	0.000000	6.672612	2.224206
Sr	2.224206	6.672612	2.224206
In	0.000000	4.448406	4.448406
O	2.224206	6.672612	4.448406
O	2.224206	4.448406	6.672612
O	0.000000	6.672612	6.672612
Sr	2.224206	6.672612	6.672612
In	4.448406	0.000000	0.000000
O	6.672612	2.224206	0.000000
O	6.672612	0.000000	2.224206
O	4.448406	2.224206	2.224206
Sr	6.672612	2.224206	2.224206
In	4.448406	0.000000	4.448406
O	6.672612	2.224206	4.448406
O	6.672612	0.000000	6.672612
O	4.448406	2.224206	6.672612
Sr	6.672612	2.224206	6.672612
In	4.448406	4.448406	0.000000
O	6.672612	6.672612	0.000000
O	6.672612	4.448406	2.224206
O	4.448406	6.672612	2.224206
Sr	6.672612	6.672612	2.224206
In	4.448406	4.448406	4.448406
O	6.672612	6.672612	4.448406
O	6.672612	4.448406	6.672612
O	4.448406	6.672612	6.672612
Sr	6.672612	6.672612	6.672612
