40

F	1.813434	1.813434	1.813434
O	0.000000	1.813434	1.813434
O	1.813434	0.000000	1.813434
O	1.813434	1.813434	0.000000
Ti	0.000000	0.000000	0.000000
F	1.813434	1.813434	5.440303
O	0.000000	1.813434	5.440303
O	1.813434	0.000000	5.440303
O	1.813434	1.813434	3.626869
Ti	0.000000	0.000000	3.626869
F	1.813434	5.440303	1.813434
O	0.000000	5.440303	1.813434
O	1.813434	3.626869	1.813434
O	1.813434	5.440303	0.000000
Ti	0.000000	3.626869	0.000000
F	1.813434	5.440303	5.440303
O	0.000000	5.440303	5.440303
O	1.813434	3.626869	5.440303
O	1.813434	5.440303	3.626869
Ti	0.000000	3.626869	3.626869
F	5.440303	1.813434	1.813434
O	3.626869	1.813434	1.813434
O	5.440303	0.000000	1.813434
O	5.440303	1.813434	0.000000
Ti	3.626869	0.000000	0.000000
F	5.440303	1.813434	5.440303
O	3.626869	1.813434	5.440303
O	5.440303	0.000000	5.440303
O	5.440303	1.813434	3.626869
Ti	3.626869	0.000000	3.626869
F	5.440303	5.440303	1.813434
O	3.626869	5.440303	1.813434
O	5.440303	3.626869	1.813434
O	5.440303	5.440303	0.000000
Ti	3.626869	3.626869	0.000000
F	5.440303	5.440303	5.440303
O	3.626869	5.440303	5.440303
O	5.440303	3.626869	5.440303
O	5.440303	5.440303	3.626869
Ti	3.626869	3.626869	3.626869
