40

Eu	0.000000	0.000000	0.000000
Ga	1.917991	1.917991	1.917991
O	1.917991	1.917991	0.000000
O	1.917991	0.000000	1.917991
O	0.000000	1.917991	1.917991
Eu	0.000000	0.000000	3.835986
Ga	1.917991	1.917991	5.753977
O	1.917991	1.917991	3.835986
O	1.917991	0.000000	5.753977
O	0.000000	1.917991	5.753977
Eu	0.000000	3.835986	0.000000
Ga	1.917991	5.753977	1.917991
O	1.917991	5.753977	0.000000
O	1.917991	3.835986	1.917991
O	0.000000	5.753977	1.917991
Eu	0.000000	3.835986	3.835986
Ga	1.917991	5.753977	5.753977
O	1.917991	5.753977	3.835986
O	1.917991	3.835986	5.753977
O	0.000000	5.753977	5.753977
Eu	3.835986	0.000000	0.000000
Ga	5.753977	1.917991	1.917991
O	5.753977	1.917991	0.000000
O	5.753977	0.000000	1.917991
O	3.835986	1.917991	1.917991
Eu	3.835986	0.000000	3.835986
Ga	5.753977	1.917991	5.753977
O	5.753977	1.917991	3.835986
O	5.753977	0.000000	5.753977
O	3.835986	1.917991	5.753977
Eu	3.835986	3.835986	0.000000
Ga	5.753977	5.753977	1.917991
O	5.753977	5.753977	0.000000
O	5.753977	3.835986	1.917991
O	3.835986	5.753977	1.917991
Eu	3.835986	3.835986	3.835986
Ga	5.753977	5.753977	5.753977
O	5.753977	5.753977	3.835986
O	5.753977	3.835986	5.753977
O	3.835986	5.753977	5.753977
