40

O	2.175786	2.175786	0.000000
O	0.000000	2.175786	2.175786
O	2.175786	0.000000	2.175786
Pa	2.175786	2.175786	2.175786
V	0.000000	0.000000	0.000000
O	2.175786	2.175786	4.351571
O	0.000000	2.175786	6.527357
O	2.175786	0.000000	6.527357
Pa	2.175786	2.175786	6.527357
V	0.000000	0.000000	4.351571
O	2.175786	6.527357	0.000000
O	0.000000	6.527357	2.175786
O	2.175786	4.351571	2.175786
Pa	2.175786	6.527357	2.175786
V	0.000000	4.351571	0.000000
O	2.175786	6.527357	4.351571
O	0.000000	6.527357	6.527357
O	2.175786	4.351571	6.527357
Pa	2.175786	6.527357	6.527357
V	0.000000	4.351571	4.351571
O	6.527357	2.175786	0.000000
O	4.351571	2.175786	2.175786
O	6.527357	0.000000	2.175786
Pa	6.527357	2.175786	2.175786
V	4.351571	0.000000	0.000000
O	6.527357	2.175786	4.351571
O	4.351571	2.175786	6.527357
O	6.527357	0.000000	6.527357
Pa	6.527357	2.175786	6.527357
V	4.351571	0.000000	4.351571
O	6.527357	6.527357	0.000000
O	4.351571	6.527357	2.175786
O	6.527357	4.351571	2.175786
Pa	6.527357	6.527357	2.175786
V	4.351571	4.351571	0.000000
O	6.527357	6.527357	4.351571
O	4.351571	6.527357	6.527357
O	6.527357	4.351571	6.527357
Pa	6.527357	6.527357	6.527357
V	4.351571	4.351571	4.351571
