40

B	0.000000	0.000000	0.000000
O	0.000000	1.957482	1.957482
O	1.957482	0.000000	1.957482
O	1.957482	1.957482	0.000000
W	1.957482	1.957482	1.957482
B	0.000000	0.000000	3.914964
O	0.000000	1.957482	5.872445
O	1.957482	0.000000	5.872445
O	1.957482	1.957482	3.914964
W	1.957482	1.957482	5.872445
B	0.000000	3.914964	0.000000
O	0.000000	5.872445	1.957482
O	1.957482	3.914964	1.957482
O	1.957482	5.872445	0.000000
W	1.957482	5.872445	1.957482
B	0.000000	3.914964	3.914964
O	0.000000	5.872445	5.872445
O	1.957482	3.914964	5.872445
O	1.957482	5.872445	3.914964
W	1.957482	5.872445	5.872445
B	3.914964	0.000000	0.000000
O	3.914964	1.957482	1.957482
O	5.872445	0.000000	1.957482
O	5.872445	1.957482	0.000000
W	5.872445	1.957482	1.957482
B	3.914964	0.000000	3.914964
O	3.914964	1.957482	5.872445
O	5.872445	0.000000	5.872445
O	5.872445	1.957482	3.914964
W	5.872445	1.957482	5.872445
B	3.914964	3.914964	0.000000
O	3.914964	5.872445	1.957482
O	5.872445	3.914964	1.957482
O	5.872445	5.872445	0.000000
W	5.872445	5.872445	1.957482
B	3.914964	3.914964	3.914964
O	3.914964	5.872445	5.872445
O	5.872445	3.914964	5.872445
O	5.872445	5.872445	3.914964
W	5.872445	5.872445	5.872445
