40

B	1.714024	1.714024	1.714024
O	1.714024	1.714024	0.000000
O	1.714024	0.000000	1.714024
O	0.000000	1.714024	1.714024
W	0.000000	0.000000	0.000000
B	1.714024	1.714024	5.142073
O	1.714024	1.714024	3.428049
O	1.714024	0.000000	5.142073
O	0.000000	1.714024	5.142073
W	0.000000	0.000000	3.428049
B	1.714024	5.142073	1.714024
O	1.714024	5.142073	0.000000
O	1.714024	3.428049	1.714024
O	0.000000	5.142073	1.714024
W	0.000000	3.428049	0.000000
B	1.714024	5.142073	5.142073
O	1.714024	5.142073	3.428049
O	1.714024	3.428049	5.142073
O	0.000000	5.142073	5.142073
W	0.000000	3.428049	3.428049
B	5.142073	1.714024	1.714024
O	5.142073	1.714024	0.000000
O	5.142073	0.000000	1.714024
O	3.428049	1.714024	1.714024
W	3.428049	0.000000	0.000000
B	5.142073	1.714024	5.142073
O	5.142073	1.714024	3.428049
O	5.142073	0.000000	5.142073
O	3.428049	1.714024	5.142073
W	3.428049	0.000000	3.428049
B	5.142073	5.142073	1.714024
O	5.142073	5.142073	0.000000
O	5.142073	3.428049	1.714024
O	3.428049	5.142073	1.714024
W	3.428049	3.428049	0.000000
B	5.142073	5.142073	5.142073
O	5.142073	5.142073	3.428049
O	5.142073	3.428049	5.142073
O	3.428049	5.142073	5.142073
W	3.428049	3.428049	3.428049
