40

Mn	0.000000	0.000000	0.000000
O	1.938730	1.938730	0.000000
O	0.000000	1.938730	1.938730
O	1.938730	0.000000	1.938730
Rh	1.938730	1.938730	1.938730
Mn	0.000000	0.000000	3.877465
O	1.938730	1.938730	3.877465
O	0.000000	1.938730	5.816195
O	1.938730	0.000000	5.816195
Rh	1.938730	1.938730	5.816195
Mn	0.000000	3.877465	0.000000
O	1.938730	5.816195	0.000000
O	0.000000	5.816195	1.938730
O	1.938730	3.877465	1.938730
Rh	1.938730	5.816195	1.938730
Mn	0.000000	3.877465	3.877465
O	1.938730	5.816195	3.877465
O	0.000000	5.816195	5.816195
O	1.938730	3.877465	5.816195
Rh	1.938730	5.816195	5.816195
Mn	3.877465	0.000000	0.000000
O	5.816195	1.938730	0.000000
O	3.877465	1.938730	1.938730
O	5.816195	0.000000	1.938730
Rh	5.816195	1.938730	1.938730
Mn	3.877465	0.000000	3.877465
O	5.816195	1.938730	3.877465
O	3.877465	1.938730	5.816195
O	5.816195	0.000000	5.816195
Rh	5.816195	1.938730	5.816195
Mn	3.877465	3.877465	0.000000
O	5.816195	5.816195	0.000000
O	3.877465	5.816195	1.938730
O	5.816195	3.877465	1.938730
Rh	5.816195	5.816195	1.938730
Mn	3.877465	3.877465	3.877465
O	5.816195	5.816195	3.877465
O	3.877465	5.816195	5.816195
O	5.816195	3.877465	5.816195
Rh	5.816195	5.816195	5.816195
