40

O	0.000000	2.041984	2.041984
O	2.041984	0.000000	2.041984
O	2.041984	2.041984	0.000000
Rb	0.000000	0.000000	0.000000
Ta	2.041984	2.041984	2.041984
O	0.000000	2.041984	6.125953
O	2.041984	0.000000	6.125953
O	2.041984	2.041984	4.083969
Rb	0.000000	0.000000	4.083969
Ta	2.041984	2.041984	6.125953
O	0.000000	6.125953	2.041984
O	2.041984	4.083969	2.041984
O	2.041984	6.125953	0.000000
Rb	0.000000	4.083969	0.000000
Ta	2.041984	6.125953	2.041984
O	0.000000	6.125953	6.125953
O	2.041984	4.083969	6.125953
O	2.041984	6.125953	4.083969
Rb	0.000000	4.083969	4.083969
Ta	2.041984	6.125953	6.125953
O	4.083969	2.041984	2.041984
O	6.125953	0.000000	2.041984
O	6.125953	2.041984	0.000000
Rb	4.083969	0.000000	0.000000
Ta	6.125953	2.041984	2.041984
O	4.083969	2.041984	6.125953
O	6.125953	0.000000	6.125953
O	6.125953	2.041984	4.083969
Rb	4.083969	0.000000	4.083969
Ta	6.125953	2.041984	6.125953
O	4.083969	6.125953	2.041984
O	6.125953	4.083969	2.041984
O	6.125953	6.125953	0.000000
Rb	4.083969	4.083969	0.000000
Ta	6.125953	6.125953	2.041984
O	4.083969	6.125953	6.125953
O	6.125953	4.083969	6.125953
O	6.125953	6.125953	4.083969
Rb	4.083969	4.083969	4.083969
Ta	6.125953	6.125953	6.125953
