112

Ir	0.000000	0.000000	0.000000
Ir	2.414142	-2.411306	-2.411306
O	-1.173984	1.159112	-3.663510
O	3.654299	-1.159112	-1.159112
O	1.173984	-1.159112	-3.663510
O	1.240157	1.252194	-1.252194
O	6.002257	1.159112	-1.159112
O	1.240157	3.570428	-3.570428
O	3.588116	1.252194	-3.570428
O	3.588116	3.570428	-1.252194
Pu	-1.207071	-1.205653	-3.616969
Pu	3.621212	1.205653	-1.205653
Pu	1.207071	1.205653	-3.616969
Pu	6.035354	-1.205653	-1.205653
Ir	4.828282	4.822621	0.000000
Ir	7.242424	2.411315	-2.411306
O	3.654298	5.981733	-3.663510
O	8.482581	3.663509	-1.159112
O	6.002266	3.663509	-3.663510
O	6.068439	6.074815	-1.252194
O	10.830539	5.981733	-1.159112
O	6.068439	8.393049	-3.570428
O	8.416398	6.074815	-3.570428
O	8.416398	8.393049	-1.252194
Pu	3.621211	3.616968	-3.616969
Pu	8.449494	6.028274	-1.205653
Pu	6.035353	6.028274	-3.616969
Pu	10.863636	3.616968	-1.205653
Ir	-4.828282	0.000000	-4.822621
Ir	-2.414140	-2.411306	-7.233927
O	-6.002266	1.159112	-8.486131
O	-1.173983	-1.159112	-5.981733
O	-3.654298	-1.159112	-8.486131
O	-3.588125	1.252194	-6.074815
O	1.173975	1.159112	-5.981733
O	-3.588125	3.570428	-8.393049
O	-1.240166	1.252194	-8.393049
O	-1.240166	3.570428	-6.074815
Pu	-6.035353	-1.205653	-8.439590
Pu	-1.207070	1.205653	-6.028274
Pu	-3.621211	1.205653	-8.439590
Pu	1.207072	-1.205653	-6.028274
Ir	0.000000	4.822621	-4.822621
Ir	2.414142	2.411315	-7.233927
O	-1.173984	5.981733	-8.486131
O	3.654299	3.663509	-5.981733
O	1.173984	3.663509	-8.486131
O	1.240157	6.074815	-6.074815
O	6.002257	5.981733	-5.981733
O	1.240157	8.393049	-8.393049
O	3.588116	6.074815	-8.393049
O	3.588116	8.393049	-6.074815
Pu	-1.207071	3.616968	-8.439590
Pu	3.621212	6.028274	-6.028274
Pu	1.207071	6.028274	-8.439590
Pu	6.035354	3.616968	-6.028274
Ir	4.828282	-4.822621	0.000000
Ir	7.242424	-7.233927	-2.411306
O	3.654298	-3.663509	-3.663510
O	8.482581	-5.981733	-1.159112
O	6.002266	-5.981733	-3.663510
O	6.068439	-3.570427	-1.252194
O	10.830539	-3.663509	-1.159112
O	6.068439	-1.252193	-3.570428
O	8.416398	-3.570427	-3.570428
O	8.416398	-1.252193	-1.252194
Pu	3.621211	-6.028274	-3.616969
Pu	8.449494	-3.616968	-1.205653
Pu	6.035353	-3.616968	-3.616969
Pu	10.863636	-6.028274	-1.205653
Ir	9.656564	0.000000	0.000000
Ir	12.070706	-2.411306	-2.411306
O	8.482580	1.159112	-3.663510
O	13.310863	-1.159112	-1.159112
O	10.830548	-1.159112	-3.663510
O	10.896721	1.252194	-1.252194
O	15.658821	1.159112	-1.159112
O	10.896721	3.570428	-3.570428
O	13.244680	1.252194	-3.570428
O	13.244680	3.570428	-1.252194
Pu	8.449493	-1.205653	-3.616969
Pu	13.277776	1.205653	-1.205653
Pu	10.863635	1.205653	-3.616969
Pu	15.691918	-1.205653	-1.205653
Ir	0.000000	-4.822621	-4.822621
Ir	2.414142	-7.233927	-7.233927
O	-1.173984	-3.663509	-8.486131
O	3.654299	-5.981733	-5.981733
O	1.173984	-5.981733	-8.486131
O	1.240157	-3.570427	-6.074815
O	6.002257	-3.663509	-5.981733
O	1.240157	-1.252193	-8.393049
O	3.588116	-3.570427	-8.393049
O	3.588116	-1.252193	-6.074815
Pu	-1.207071	-6.028274	-8.439590
Pu	3.621212	-3.616968	-6.028274
Pu	1.207071	-3.616968	-8.439590
Pu	6.035354	-6.028274	-6.028274
Ir	4.828282	0.000000	-4.822621
Ir	7.242424	-2.411306	-7.233927
O	3.654298	1.159112	-8.486131
O	8.482581	-1.159112	-5.981733
O	6.002266	-1.159112	-8.486131
O	6.068439	1.252194	-6.074815
O	10.830539	1.159112	-5.981733
O	6.068439	3.570428	-8.393049
O	8.416398	1.252194	-8.393049
O	8.416398	3.570428	-6.074815
Pu	3.621211	-1.205653	-8.439590
Pu	8.449494	1.205653	-6.028274
Pu	6.035353	1.205653	-8.439590
Pu	10.863636	-1.205653	-6.028274
