40

Cu	1.855259	1.855259	1.855259
O	1.855259	1.855259	0.000000
O	0.000000	1.855259	1.855259
O	1.855259	0.000000	1.855259
Tm	0.000000	0.000000	0.000000
Cu	1.855259	1.855259	5.565771
O	1.855259	1.855259	3.710511
O	0.000000	1.855259	5.565771
O	1.855259	0.000000	5.565771
Tm	0.000000	0.000000	3.710511
Cu	1.855259	5.565771	1.855259
O	1.855259	5.565771	0.000000
O	0.000000	5.565771	1.855259
O	1.855259	3.710511	1.855259
Tm	0.000000	3.710511	0.000000
Cu	1.855259	5.565771	5.565771
O	1.855259	5.565771	3.710511
O	0.000000	5.565771	5.565771
O	1.855259	3.710511	5.565771
Tm	0.000000	3.710511	3.710511
Cu	5.565771	1.855259	1.855259
O	5.565771	1.855259	0.000000
O	3.710511	1.855259	1.855259
O	5.565771	0.000000	1.855259
Tm	3.710511	0.000000	0.000000
Cu	5.565771	1.855259	5.565771
O	5.565771	1.855259	3.710511
O	3.710511	1.855259	5.565771
O	5.565771	0.000000	5.565771
Tm	3.710511	0.000000	3.710511
Cu	5.565771	5.565771	1.855259
O	5.565771	5.565771	0.000000
O	3.710511	5.565771	1.855259
O	5.565771	3.710511	1.855259
Tm	3.710511	3.710511	0.000000
Cu	5.565771	5.565771	5.565771
O	5.565771	5.565771	3.710511
O	3.710511	5.565771	5.565771
O	5.565771	3.710511	5.565771
Tm	3.710511	3.710511	3.710511
