40

Ca	0.000000	0.000000	0.000000
Nd	2.241203	2.241203	2.241203
O	2.241203	2.241203	0.000000
O	2.241203	0.000000	2.241203
O	0.000000	2.241203	2.241203
Ca	0.000000	0.000000	4.482405
Nd	2.241203	2.241203	6.723608
O	2.241203	2.241203	4.482405
O	2.241203	0.000000	6.723608
O	0.000000	2.241203	6.723608
Ca	0.000000	4.482405	0.000000
Nd	2.241203	6.723608	2.241203
O	2.241203	6.723608	0.000000
O	2.241203	4.482405	2.241203
O	0.000000	6.723608	2.241203
Ca	0.000000	4.482405	4.482405
Nd	2.241203	6.723608	6.723608
O	2.241203	6.723608	4.482405
O	2.241203	4.482405	6.723608
O	0.000000	6.723608	6.723608
Ca	4.482405	0.000000	0.000000
Nd	6.723608	2.241203	2.241203
O	6.723608	2.241203	0.000000
O	6.723608	0.000000	2.241203
O	4.482405	2.241203	2.241203
Ca	4.482405	0.000000	4.482405
Nd	6.723608	2.241203	6.723608
O	6.723608	2.241203	4.482405
O	6.723608	0.000000	6.723608
O	4.482405	2.241203	6.723608
Ca	4.482405	4.482405	0.000000
Nd	6.723608	6.723608	2.241203
O	6.723608	6.723608	0.000000
O	6.723608	4.482405	2.241203
O	4.482405	6.723608	2.241203
Ca	4.482405	4.482405	4.482405
Nd	6.723608	6.723608	6.723608
O	6.723608	6.723608	4.482405
O	6.723608	4.482405	6.723608
O	4.482405	6.723608	6.723608
