40

As	1.876030	1.876030	1.876030
Ni	0.000000	0.000000	0.000000
O	0.000000	1.876030	1.876030
O	1.876030	0.000000	1.876030
O	1.876030	1.876030	0.000000
As	1.876030	1.876030	5.628091
Ni	0.000000	0.000000	3.752060
O	0.000000	1.876030	5.628091
O	1.876030	0.000000	5.628091
O	1.876030	1.876030	3.752060
As	1.876030	5.628091	1.876030
Ni	0.000000	3.752060	0.000000
O	0.000000	5.628091	1.876030
O	1.876030	3.752060	1.876030
O	1.876030	5.628091	0.000000
As	1.876030	5.628091	5.628091
Ni	0.000000	3.752060	3.752060
O	0.000000	5.628091	5.628091
O	1.876030	3.752060	5.628091
O	1.876030	5.628091	3.752060
As	5.628091	1.876030	1.876030
Ni	3.752060	0.000000	0.000000
O	3.752060	1.876030	1.876030
O	5.628091	0.000000	1.876030
O	5.628091	1.876030	0.000000
As	5.628091	1.876030	5.628091
Ni	3.752060	0.000000	3.752060
O	3.752060	1.876030	5.628091
O	5.628091	0.000000	5.628091
O	5.628091	1.876030	3.752060
As	5.628091	5.628091	1.876030
Ni	3.752060	3.752060	0.000000
O	3.752060	5.628091	1.876030
O	5.628091	3.752060	1.876030
O	5.628091	5.628091	0.000000
As	5.628091	5.628091	5.628091
Ni	3.752060	3.752060	3.752060
O	3.752060	5.628091	5.628091
O	5.628091	3.752060	5.628091
O	5.628091	5.628091	3.752060
