40

O	0.000000	1.977585	1.977585
O	1.977585	0.000000	1.977585
O	1.977585	1.977585	0.000000
Ru	0.000000	0.000000	0.000000
W	1.977585	1.977585	1.977585
O	0.000000	1.977585	5.932754
O	1.977585	0.000000	5.932754
O	1.977585	1.977585	3.955169
Ru	0.000000	0.000000	3.955169
W	1.977585	1.977585	5.932754
O	0.000000	5.932754	1.977585
O	1.977585	3.955169	1.977585
O	1.977585	5.932754	0.000000
Ru	0.000000	3.955169	0.000000
W	1.977585	5.932754	1.977585
O	0.000000	5.932754	5.932754
O	1.977585	3.955169	5.932754
O	1.977585	5.932754	3.955169
Ru	0.000000	3.955169	3.955169
W	1.977585	5.932754	5.932754
O	3.955169	1.977585	1.977585
O	5.932754	0.000000	1.977585
O	5.932754	1.977585	0.000000
Ru	3.955169	0.000000	0.000000
W	5.932754	1.977585	1.977585
O	3.955169	1.977585	5.932754
O	5.932754	0.000000	5.932754
O	5.932754	1.977585	3.955169
Ru	3.955169	0.000000	3.955169
W	5.932754	1.977585	5.932754
O	3.955169	5.932754	1.977585
O	5.932754	3.955169	1.977585
O	5.932754	5.932754	0.000000
Ru	3.955169	3.955169	0.000000
W	5.932754	5.932754	1.977585
O	3.955169	5.932754	5.932754
O	5.932754	3.955169	5.932754
O	5.932754	5.932754	3.955169
Ru	3.955169	3.955169	3.955169
W	5.932754	5.932754	5.932754
