40

Li	0.000000	0.000000	0.000000
O	2.249416	2.249416	0.000000
O	2.249416	0.000000	2.249416
O	0.000000	2.249416	2.249416
Sr	2.249416	2.249416	2.249416
Li	0.000000	0.000000	4.498830
O	2.249416	2.249416	4.498830
O	2.249416	0.000000	6.748245
O	0.000000	2.249416	6.748245
Sr	2.249416	2.249416	6.748245
Li	0.000000	4.498830	0.000000
O	2.249416	6.748245	0.000000
O	2.249416	4.498830	2.249416
O	0.000000	6.748245	2.249416
Sr	2.249416	6.748245	2.249416
Li	0.000000	4.498830	4.498830
O	2.249416	6.748245	4.498830
O	2.249416	4.498830	6.748245
O	0.000000	6.748245	6.748245
Sr	2.249416	6.748245	6.748245
Li	4.498830	0.000000	0.000000
O	6.748245	2.249416	0.000000
O	6.748245	0.000000	2.249416
O	4.498830	2.249416	2.249416
Sr	6.748245	2.249416	2.249416
Li	4.498830	0.000000	4.498830
O	6.748245	2.249416	4.498830
O	6.748245	0.000000	6.748245
O	4.498830	2.249416	6.748245
Sr	6.748245	2.249416	6.748245
Li	4.498830	4.498830	0.000000
O	6.748245	6.748245	0.000000
O	6.748245	4.498830	2.249416
O	4.498830	6.748245	2.249416
Sr	6.748245	6.748245	2.249416
Li	4.498830	4.498830	4.498830
O	6.748245	6.748245	4.498830
O	6.748245	4.498830	6.748245
O	4.498830	6.748245	6.748245
Sr	6.748245	6.748245	6.748245
