40

Li	1.901239	1.901239	1.901239
O	1.901239	1.901239	0.000000
O	1.901239	0.000000	1.901239
O	0.000000	1.901239	1.901239
Sr	0.000000	0.000000	0.000000
Li	1.901239	1.901239	5.703722
O	1.901239	1.901239	3.802483
O	1.901239	0.000000	5.703722
O	0.000000	1.901239	5.703722
Sr	0.000000	0.000000	3.802483
Li	1.901239	5.703722	1.901239
O	1.901239	5.703722	0.000000
O	1.901239	3.802483	1.901239
O	0.000000	5.703722	1.901239
Sr	0.000000	3.802483	0.000000
Li	1.901239	5.703722	5.703722
O	1.901239	5.703722	3.802483
O	1.901239	3.802483	5.703722
O	0.000000	5.703722	5.703722
Sr	0.000000	3.802483	3.802483
Li	5.703722	1.901239	1.901239
O	5.703722	1.901239	0.000000
O	5.703722	0.000000	1.901239
O	3.802483	1.901239	1.901239
Sr	3.802483	0.000000	0.000000
Li	5.703722	1.901239	5.703722
O	5.703722	1.901239	3.802483
O	5.703722	0.000000	5.703722
O	3.802483	1.901239	5.703722
Sr	3.802483	0.000000	3.802483
Li	5.703722	5.703722	1.901239
O	5.703722	5.703722	0.000000
O	5.703722	3.802483	1.901239
O	3.802483	5.703722	1.901239
Sr	3.802483	3.802483	0.000000
Li	5.703722	5.703722	5.703722
O	5.703722	5.703722	3.802483
O	5.703722	3.802483	5.703722
O	3.802483	5.703722	5.703722
Sr	3.802483	3.802483	3.802483
