112

Bi	0.000000	0.000000	0.000000
Bi	2.192662	-2.192817	-2.192817
Li	-1.096331	-1.096409	-3.289226
Li	3.288993	1.096409	-1.096409
Li	5.481654	-1.096409	-1.096409
Li	1.096331	1.096409	-3.289226
O	3.362890	-1.021850	-1.021850
O	-1.022433	1.021850	-3.363784
O	1.022433	-1.021850	-3.363784
O	1.170229	1.170967	-1.170967
O	5.407757	1.021850	-1.021850
O	1.170229	3.214667	-3.214667
O	3.215095	3.214667	-1.170967
O	3.215095	1.170967	-3.214667
Bi	4.385323	4.385635	0.000000
Bi	6.577985	2.192817	-2.192817
Li	3.288993	3.289226	-3.289226
Li	7.674316	5.482043	-1.096409
Li	9.866978	3.289226	-1.096409
Li	5.481654	5.482043	-3.289226
O	7.748214	3.363784	-1.021850
O	3.362890	5.407485	-3.363784
O	5.407756	3.363784	-3.363784
O	5.555552	5.556602	-1.170967
O	9.793080	5.407485	-1.021850
O	5.555552	7.600302	-3.214667
O	7.600418	7.600302	-1.170967
O	7.600418	5.556602	-3.214667
Bi	-4.385323	0.000000	-4.385635
Bi	-2.192662	-2.192817	-6.578452
Li	-5.481654	-1.096409	-7.674860
Li	-1.096331	1.096409	-5.482043
Li	1.096331	-1.096409	-5.482043
Li	-3.288993	1.096409	-7.674860
O	-1.022433	-1.021850	-5.407485
O	-5.407757	1.021850	-7.749419
O	-3.362890	-1.021850	-7.749419
O	-3.215095	1.170967	-5.556602
O	1.022433	1.021850	-5.407485
O	-3.215095	3.214667	-7.600302
O	-1.170229	3.214667	-5.556602
O	-1.170229	1.170967	-7.600302
Bi	0.000000	4.385635	-4.385635
Bi	2.192662	2.192817	-6.578452
Li	-1.096331	3.289226	-7.674860
Li	3.288993	5.482043	-5.482043
Li	5.481654	3.289226	-5.482043
Li	1.096331	5.482043	-7.674860
O	3.362890	3.363784	-5.407485
O	-1.022433	5.407485	-7.749419
O	1.022433	3.363784	-7.749419
O	1.170229	5.556602	-5.556602
O	5.407757	5.407485	-5.407485
O	1.170229	7.600302	-7.600302
O	3.215095	7.600302	-5.556602
O	3.215095	5.556602	-7.600302
Bi	4.385323	-4.385635	0.000000
Bi	6.577985	-6.578452	-2.192817
Li	3.288993	-5.482043	-3.289226
Li	7.674316	-3.289226	-1.096409
Li	9.866978	-5.482043	-1.096409
Li	5.481654	-3.289226	-3.289226
O	7.748214	-5.407485	-1.021850
O	3.362890	-3.363784	-3.363784
O	5.407756	-5.407485	-3.363784
O	5.555552	-3.214667	-1.170967
O	9.793080	-3.363784	-1.021850
O	5.555552	-1.170967	-3.214667
O	7.600418	-1.170967	-1.170967
O	7.600418	-3.214667	-3.214667
Bi	8.770647	0.000000	0.000000
Bi	10.963308	-2.192817	-2.192817
Li	7.674316	-1.096409	-3.289226
Li	12.059639	1.096409	-1.096409
Li	14.252301	-1.096409	-1.096409
Li	9.866978	1.096409	-3.289226
O	12.133537	-1.021850	-1.021850
O	7.748214	1.021850	-3.363784
O	9.793080	-1.021850	-3.363784
O	9.940875	1.170967	-1.170967
O	14.178403	1.021850	-1.021850
O	9.940875	3.214667	-3.214667
O	11.985742	3.214667	-1.170967
O	11.985742	1.170967	-3.214667
Bi	0.000000	-4.385635	-4.385635
Bi	2.192662	-6.578452	-6.578452
Li	-1.096331	-5.482043	-7.674860
Li	3.288993	-3.289226	-5.482043
Li	5.481654	-5.482043	-5.482043
Li	1.096331	-3.289226	-7.674860
O	3.362890	-5.407485	-5.407485
O	-1.022433	-3.363784	-7.749419
O	1.022433	-5.407485	-7.749419
O	1.170229	-3.214667	-5.556602
O	5.407757	-3.363784	-5.407485
O	1.170229	-1.170967	-7.600302
O	3.215095	-1.170967	-5.556602
O	3.215095	-3.214667	-7.600302
Bi	4.385323	0.000000	-4.385635
Bi	6.577985	-2.192817	-6.578452
Li	3.288993	-1.096409	-7.674860
Li	7.674316	1.096409	-5.482043
Li	9.866978	-1.096409	-5.482043
Li	5.481654	1.096409	-7.674860
O	7.748214	-1.021850	-5.407485
O	3.362890	1.021850	-7.749419
O	5.407756	-1.021850	-7.749419
O	5.555552	1.170967	-5.556602
O	9.793080	1.021850	-5.407485
O	5.555552	3.214667	-7.600302
O	7.600418	3.214667	-5.556602
O	7.600418	1.170967	-7.600302
