40

Gd	2.202927	2.202927	2.202927
O	2.202927	2.202927	0.000000
O	2.202927	0.000000	2.202927
O	0.000000	2.202927	2.202927
Tl	0.000000	0.000000	0.000000
Gd	2.202927	2.202927	6.608789
O	2.202927	2.202927	4.405862
O	2.202927	0.000000	6.608789
O	0.000000	2.202927	6.608789
Tl	0.000000	0.000000	4.405862
Gd	2.202927	6.608789	2.202927
O	2.202927	6.608789	0.000000
O	2.202927	4.405862	2.202927
O	0.000000	6.608789	2.202927
Tl	0.000000	4.405862	0.000000
Gd	2.202927	6.608789	6.608789
O	2.202927	6.608789	4.405862
O	2.202927	4.405862	6.608789
O	0.000000	6.608789	6.608789
Tl	0.000000	4.405862	4.405862
Gd	6.608789	2.202927	2.202927
O	6.608789	2.202927	0.000000
O	6.608789	0.000000	2.202927
O	4.405862	2.202927	2.202927
Tl	4.405862	0.000000	0.000000
Gd	6.608789	2.202927	6.608789
O	6.608789	2.202927	4.405862
O	6.608789	0.000000	6.608789
O	4.405862	2.202927	6.608789
Tl	4.405862	0.000000	4.405862
Gd	6.608789	6.608789	2.202927
O	6.608789	6.608789	0.000000
O	6.608789	4.405862	2.202927
O	4.405862	6.608789	2.202927
Tl	4.405862	4.405862	0.000000
Gd	6.608789	6.608789	6.608789
O	6.608789	6.608789	4.405862
O	6.608789	4.405862	6.608789
O	4.405862	6.608789	6.608789
Tl	4.405862	4.405862	4.405862
