40

Nb	2.008202	2.008202	2.008202
O	2.008202	2.008202	0.000000
O	0.000000	2.008202	2.008202
O	2.008202	0.000000	2.008202
Tm	0.000000	0.000000	0.000000
Nb	2.008202	2.008202	6.024606
O	2.008202	2.008202	4.016404
O	0.000000	2.008202	6.024606
O	2.008202	0.000000	6.024606
Tm	0.000000	0.000000	4.016404
Nb	2.008202	6.024606	2.008202
O	2.008202	6.024606	0.000000
O	0.000000	6.024606	2.008202
O	2.008202	4.016404	2.008202
Tm	0.000000	4.016404	0.000000
Nb	2.008202	6.024606	6.024606
O	2.008202	6.024606	4.016404
O	0.000000	6.024606	6.024606
O	2.008202	4.016404	6.024606
Tm	0.000000	4.016404	4.016404
Nb	6.024606	2.008202	2.008202
O	6.024606	2.008202	0.000000
O	4.016404	2.008202	2.008202
O	6.024606	0.000000	2.008202
Tm	4.016404	0.000000	0.000000
Nb	6.024606	2.008202	6.024606
O	6.024606	2.008202	4.016404
O	4.016404	2.008202	6.024606
O	6.024606	0.000000	6.024606
Tm	4.016404	0.000000	4.016404
Nb	6.024606	6.024606	2.008202
O	6.024606	6.024606	0.000000
O	4.016404	6.024606	2.008202
O	6.024606	4.016404	2.008202
Tm	4.016404	4.016404	0.000000
Nb	6.024606	6.024606	6.024606
O	6.024606	6.024606	4.016404
O	4.016404	6.024606	6.024606
O	6.024606	4.016404	6.024606
Tm	4.016404	4.016404	4.016404
