40

Be	1.762520	1.762520	1.762520
O	1.762520	1.762520	0.000000
O	0.000000	1.762520	1.762520
O	1.762520	0.000000	1.762520
Te	0.000000	0.000000	0.000000
Be	1.762520	1.762520	5.287549
O	1.762520	1.762520	3.525029
O	0.000000	1.762520	5.287549
O	1.762520	0.000000	5.287549
Te	0.000000	0.000000	3.525029
Be	1.762520	5.287549	1.762520
O	1.762520	5.287549	0.000000
O	0.000000	5.287549	1.762520
O	1.762520	3.525029	1.762520
Te	0.000000	3.525029	0.000000
Be	1.762520	5.287549	5.287549
O	1.762520	5.287549	3.525029
O	0.000000	5.287549	5.287549
O	1.762520	3.525029	5.287549
Te	0.000000	3.525029	3.525029
Be	5.287549	1.762520	1.762520
O	5.287549	1.762520	0.000000
O	3.525029	1.762520	1.762520
O	5.287549	0.000000	1.762520
Te	3.525029	0.000000	0.000000
Be	5.287549	1.762520	5.287549
O	5.287549	1.762520	3.525029
O	3.525029	1.762520	5.287549
O	5.287549	0.000000	5.287549
Te	3.525029	0.000000	3.525029
Be	5.287549	5.287549	1.762520
O	5.287549	5.287549	0.000000
O	3.525029	5.287549	1.762520
O	5.287549	3.525029	1.762520
Te	3.525029	3.525029	0.000000
Be	5.287549	5.287549	5.287549
O	5.287549	5.287549	3.525029
O	3.525029	5.287549	5.287549
O	5.287549	3.525029	5.287549
Te	3.525029	3.525029	3.525029
