40

Be	1.778284	1.778284	1.778284
O	1.778284	1.778284	0.000000
O	1.778284	0.000000	1.778284
O	0.000000	1.778284	1.778284
Te	0.000000	0.000000	0.000000
Be	1.778284	1.778284	5.334851
O	1.778284	1.778284	3.556567
O	1.778284	0.000000	5.334851
O	0.000000	1.778284	5.334851
Te	0.000000	0.000000	3.556567
Be	1.778284	5.334851	1.778284
O	1.778284	5.334851	0.000000
O	1.778284	3.556567	1.778284
O	0.000000	5.334851	1.778284
Te	0.000000	3.556567	0.000000
Be	1.778284	5.334851	5.334851
O	1.778284	5.334851	3.556567
O	1.778284	3.556567	5.334851
O	0.000000	5.334851	5.334851
Te	0.000000	3.556567	3.556567
Be	5.334851	1.778284	1.778284
O	5.334851	1.778284	0.000000
O	5.334851	0.000000	1.778284
O	3.556567	1.778284	1.778284
Te	3.556567	0.000000	0.000000
Be	5.334851	1.778284	5.334851
O	5.334851	1.778284	3.556567
O	5.334851	0.000000	5.334851
O	3.556567	1.778284	5.334851
Te	3.556567	0.000000	3.556567
Be	5.334851	5.334851	1.778284
O	5.334851	5.334851	0.000000
O	5.334851	3.556567	1.778284
O	3.556567	5.334851	1.778284
Te	3.556567	3.556567	0.000000
Be	5.334851	5.334851	5.334851
O	5.334851	5.334851	3.556567
O	5.334851	3.556567	5.334851
O	3.556567	5.334851	5.334851
Te	3.556567	3.556567	3.556567
