40

O	1.956234	1.956234	0.000000
O	1.956234	0.000000	1.956234
O	0.000000	1.956234	1.956234
Pm	0.000000	0.000000	0.000000
V	1.956234	1.956234	1.956234
O	1.956234	1.956234	3.912469
O	1.956234	0.000000	5.868703
O	0.000000	1.956234	5.868703
Pm	0.000000	0.000000	3.912469
V	1.956234	1.956234	5.868703
O	1.956234	5.868703	0.000000
O	1.956234	3.912469	1.956234
O	0.000000	5.868703	1.956234
Pm	0.000000	3.912469	0.000000
V	1.956234	5.868703	1.956234
O	1.956234	5.868703	3.912469
O	1.956234	3.912469	5.868703
O	0.000000	5.868703	5.868703
Pm	0.000000	3.912469	3.912469
V	1.956234	5.868703	5.868703
O	5.868703	1.956234	0.000000
O	5.868703	0.000000	1.956234
O	3.912469	1.956234	1.956234
Pm	3.912469	0.000000	0.000000
V	5.868703	1.956234	1.956234
O	5.868703	1.956234	3.912469
O	5.868703	0.000000	5.868703
O	3.912469	1.956234	5.868703
Pm	3.912469	0.000000	3.912469
V	5.868703	1.956234	5.868703
O	5.868703	5.868703	0.000000
O	5.868703	3.912469	1.956234
O	3.912469	5.868703	1.956234
Pm	3.912469	3.912469	0.000000
V	5.868703	5.868703	1.956234
O	5.868703	5.868703	3.912469
O	5.868703	3.912469	5.868703
O	3.912469	5.868703	5.868703
Pm	3.912469	3.912469	3.912469
V	5.868703	5.868703	5.868703
