40

In	2.165951	2.165951	2.165951
O	0.000000	2.165951	2.165951
O	2.165951	0.000000	2.165951
O	2.165951	2.165951	0.000000
Rb	0.000000	0.000000	0.000000
In	2.165951	2.165951	6.497852
O	0.000000	2.165951	6.497852
O	2.165951	0.000000	6.497852
O	2.165951	2.165951	4.331902
Rb	0.000000	0.000000	4.331902
In	2.165951	6.497852	2.165951
O	0.000000	6.497852	2.165951
O	2.165951	4.331902	2.165951
O	2.165951	6.497852	0.000000
Rb	0.000000	4.331902	0.000000
In	2.165951	6.497852	6.497852
O	0.000000	6.497852	6.497852
O	2.165951	4.331902	6.497852
O	2.165951	6.497852	4.331902
Rb	0.000000	4.331902	4.331902
In	6.497852	2.165951	2.165951
O	4.331902	2.165951	2.165951
O	6.497852	0.000000	2.165951
O	6.497852	2.165951	0.000000
Rb	4.331902	0.000000	0.000000
In	6.497852	2.165951	6.497852
O	4.331902	2.165951	6.497852
O	6.497852	0.000000	6.497852
O	6.497852	2.165951	4.331902
Rb	4.331902	0.000000	4.331902
In	6.497852	6.497852	2.165951
O	4.331902	6.497852	2.165951
O	6.497852	4.331902	2.165951
O	6.497852	6.497852	0.000000
Rb	4.331902	4.331902	0.000000
In	6.497852	6.497852	6.497852
O	4.331902	6.497852	6.497852
O	6.497852	4.331902	6.497852
O	6.497852	6.497852	4.331902
Rb	4.331902	4.331902	4.331902
