176

O	5.474469	3.871034	9.482059
O	3.284682	2.322621	5.689235
O	4.103768	5.809498	11.856183
O	1.913981	4.261085	8.063359
O	6.845170	1.932571	11.856183
O	8.215871	5.809498	9.482059
O	2.733067	1.932571	9.482059
O	4.103768	5.809498	7.107935
O	6.845170	1.932571	7.107935
O	6.026084	4.261085	5.689235
O	0.543280	0.384157	5.689235
O	4.655383	0.384157	3.315112
O	4.655383	0.384157	8.063359
O	1.913981	4.261085	3.315112
Sn	4.379575	3.096828	7.585647
Sn	4.379575	3.096828	3.792824
Sn	1.094894	3.096828	5.689235
Sn	3.284682	0.000000	5.689235
Ta	0.000000	0.000000	0.000000
Ta	0.000000	0.000000	3.792824
Ta	3.284682	0.000000	1.896412
Ta	1.094894	3.096828	1.896412
O	5.474469	3.871034	17.067706
O	3.284682	2.322621	13.274883
O	4.103768	5.809498	19.441830
O	1.913981	4.261085	15.649006
O	6.845170	1.932571	19.441830
O	8.215871	5.809498	17.067706
O	2.733067	1.932571	17.067706
O	4.103768	5.809498	14.693583
O	6.845170	1.932571	14.693583
O	6.026084	4.261085	13.274883
O	0.543280	0.384157	13.274883
O	4.655383	0.384157	10.900759
O	4.655383	0.384157	15.649006
O	1.913981	4.261085	10.900759
Sn	4.379575	3.096828	15.171294
Sn	4.379575	3.096828	11.378471
Sn	1.094894	3.096828	13.274883
Sn	3.284682	0.000000	13.274883
Ta	0.000000	0.000000	7.585647
Ta	0.000000	0.000000	11.378471
Ta	3.284682	0.000000	9.482059
Ta	1.094894	3.096828	9.482059
O	7.664257	10.064689	13.274883
O	5.474469	8.516276	9.482059
O	6.293556	12.003153	15.649006
O	4.103768	10.454740	11.856183
O	9.034958	8.126226	15.649006
O	10.405659	12.003153	13.274883
O	4.922855	8.126226	13.274883
O	6.293556	12.003153	10.900759
O	9.034958	8.126226	10.900759
O	8.215871	10.454740	9.482059
O	2.733067	6.577812	9.482059
O	6.845170	6.577812	7.107935
O	6.845170	6.577812	11.856183
O	4.103768	10.454740	7.107935
Sn	6.569363	9.290483	11.378471
Sn	6.569363	9.290483	7.585647
Sn	3.284682	9.290483	9.482059
Sn	5.474469	6.193655	9.482059
Ta	2.189788	6.193655	3.792824
Ta	2.189788	6.193655	7.585647
Ta	5.474469	6.193655	5.689235
Ta	3.284682	9.290483	5.689235
O	7.664257	10.064689	20.860530
O	5.474469	8.516276	17.067706
O	6.293556	12.003153	23.234654
O	4.103768	10.454740	19.441830
O	9.034958	8.126226	23.234654
O	10.405659	12.003153	20.860530
O	4.922855	8.126226	20.860530
O	6.293556	12.003153	18.486406
O	9.034958	8.126226	18.486406
O	8.215871	10.454740	17.067706
O	2.733067	6.577812	17.067706
O	6.845170	6.577812	14.693583
O	6.845170	6.577812	19.441830
O	4.103768	10.454740	14.693583
Sn	6.569363	9.290483	18.964118
Sn	6.569363	9.290483	15.171294
Sn	3.284682	9.290483	17.067706
Sn	5.474469	6.193655	17.067706
Ta	2.189788	6.193655	11.378471
Ta	2.189788	6.193655	15.171294
Ta	5.474469	6.193655	13.274883
Ta	3.284682	9.290483	13.274883
O	12.043833	3.871034	13.274883
O	9.854045	2.322621	9.482059
O	10.673132	5.809498	15.649006
O	8.483344	4.261085	11.856183
O	13.414533	1.932571	15.649006
O	14.785234	5.809498	13.274883
O	9.302431	1.932571	13.274883
O	10.673132	5.809498	10.900759
O	13.414533	1.932571	10.900759
O	12.595447	4.261085	9.482059
O	7.112643	0.384157	9.482059
O	11.224746	0.384157	7.107935
O	11.224746	0.384157	11.856183
O	8.483344	4.261085	7.107935
Sn	10.948939	3.096828	11.378471
Sn	10.948939	3.096828	7.585647
Sn	7.664257	3.096828	9.482059
Sn	9.854045	0.000000	9.482059
Ta	6.569363	0.000000	3.792824
Ta	6.569363	0.000000	7.585647
Ta	9.854045	0.000000	5.689235
Ta	7.664257	3.096828	5.689235
O	12.043833	3.871034	20.860530
O	9.854045	2.322621	17.067706
O	10.673132	5.809498	23.234654
O	8.483344	4.261085	19.441830
O	13.414533	1.932571	23.234654
O	14.785234	5.809498	20.860530
O	9.302431	1.932571	20.860530
O	10.673132	5.809498	18.486406
O	13.414533	1.932571	18.486406
O	12.595447	4.261085	17.067706
O	7.112643	0.384157	17.067706
O	11.224746	0.384157	14.693583
O	11.224746	0.384157	19.441830
O	8.483344	4.261085	14.693583
Sn	10.948939	3.096828	18.964118
Sn	10.948939	3.096828	15.171294
Sn	7.664257	3.096828	17.067706
Sn	9.854045	0.000000	17.067706
Ta	6.569363	0.000000	11.378471
Ta	6.569363	0.000000	15.171294
Ta	9.854045	0.000000	13.274883
Ta	7.664257	3.096828	13.274883
O	14.233620	10.064689	17.067706
O	12.043833	8.516276	13.274883
O	12.862919	12.003153	19.441830
O	10.673132	10.454740	15.649006
O	15.604321	8.126226	19.441830
O	16.975022	12.003153	17.067706
O	11.492218	8.126226	17.067706
O	12.862919	12.003153	14.693583
O	15.604321	8.126226	14.693583
O	14.785234	10.454740	13.274883
O	9.302431	6.577812	13.274883
O	13.414533	6.577812	10.900759
O	13.414533	6.577812	15.649006
O	10.673132	10.454740	10.900759
Sn	13.138726	9.290483	15.171294
Sn	13.138726	9.290483	11.378471
Sn	9.854045	9.290483	13.274883
Sn	12.043833	6.193655	13.274883
Ta	8.759151	6.193655	7.585647
Ta	8.759151	6.193655	11.378471
Ta	12.043833	6.193655	9.482059
Ta	9.854045	9.290483	9.482059
O	14.233620	10.064689	24.653353
O	12.043833	8.516276	20.860530
O	12.862919	12.003153	27.027477
O	10.673132	10.454740	23.234654
O	15.604321	8.126226	27.027477
O	16.975022	12.003153	24.653353
O	11.492218	8.126226	24.653353
O	12.862919	12.003153	22.279230
O	15.604321	8.126226	22.279230
O	14.785234	10.454740	20.860530
O	9.302431	6.577812	20.860530
O	13.414533	6.577812	18.486406
O	13.414533	6.577812	23.234654
O	10.673132	10.454740	18.486406
Sn	13.138726	9.290483	22.756942
Sn	13.138726	9.290483	18.964118
Sn	9.854045	9.290483	20.860530
Sn	12.043833	6.193655	20.860530
Ta	8.759151	6.193655	15.171294
Ta	8.759151	6.193655	18.964118
Ta	12.043833	6.193655	17.067706
Ta	9.854045	9.290483	17.067706
