112

As	0.000000	0.000000	0.000000
As	2.418288	-2.419214	-2.419214
Gd	-1.209144	-1.209607	-3.628821
Gd	3.627432	1.209607	-1.209607
Gd	6.045719	-1.209607	-1.209607
Gd	1.209144	1.209607	-3.628821
O	3.731818	-1.104701	-1.104701
O	-1.104757	1.104701	-3.733727
O	1.104757	-1.104701	-3.733727
O	1.313531	1.314513	-1.314513
O	5.941333	1.104701	-1.104701
O	1.313530	3.523915	-3.523915
O	3.523045	3.523915	-1.314513
O	3.523045	1.314513	-3.523915
As	4.836575	4.838428	0.000000
As	7.254863	2.419214	-2.419214
Gd	3.627432	3.628821	-3.628821
Gd	8.464007	6.048035	-1.209607
Gd	10.882295	3.628821	-1.209607
Gd	6.045719	6.048035	-3.628821
O	8.568394	3.733727	-1.104701
O	3.731818	5.943130	-3.733727
O	5.941333	3.733727	-3.733727
O	6.150106	6.152941	-1.314513
O	10.777908	5.943130	-1.104701
O	6.150106	8.362344	-3.523915
O	8.359620	8.362344	-1.314513
O	8.359620	6.152941	-3.523915
As	-4.836575	0.000000	-4.838428
As	-2.418288	-2.419214	-7.257642
Gd	-6.045719	-1.209607	-8.467249
Gd	-1.209144	1.209607	-6.048035
Gd	1.209144	-1.209607	-6.048035
Gd	-3.627432	1.209607	-8.467249
O	-1.104757	-1.104701	-5.943130
O	-5.941333	1.104701	-8.572155
O	-3.731818	-1.104701	-8.572155
O	-3.523045	1.314513	-6.152941
O	1.104757	1.104701	-5.943130
O	-3.523045	3.523915	-8.362344
O	-1.313530	3.523915	-6.152941
O	-1.313531	1.314513	-8.362344
As	0.000000	4.838428	-4.838428
As	2.418288	2.419214	-7.257642
Gd	-1.209144	3.628821	-8.467249
Gd	3.627432	6.048035	-6.048035
Gd	6.045719	3.628821	-6.048035
Gd	1.209144	6.048035	-8.467249
O	3.731818	3.733727	-5.943130
O	-1.104757	5.943130	-8.572155
O	1.104757	3.733727	-8.572155
O	1.313531	6.152941	-6.152941
O	5.941333	5.943130	-5.943130
O	1.313530	8.362344	-8.362344
O	3.523045	8.362344	-6.152941
O	3.523045	6.152941	-8.362344
As	4.836575	-4.838428	0.000000
As	7.254863	-7.257642	-2.419214
Gd	3.627432	-6.048035	-3.628821
Gd	8.464007	-3.628821	-1.209607
Gd	10.882295	-6.048035	-1.209607
Gd	6.045719	-3.628821	-3.628821
O	8.568394	-5.943130	-1.104701
O	3.731818	-3.733727	-3.733727
O	5.941333	-5.943130	-3.733727
O	6.150106	-3.523915	-1.314513
O	10.777908	-3.733727	-1.104701
O	6.150106	-1.314513	-3.523915
O	8.359620	-1.314513	-1.314513
O	8.359620	-3.523915	-3.523915
As	9.673151	0.000000	0.000000
As	12.091439	-2.419214	-2.419214
Gd	8.464007	-1.209607	-3.628821
Gd	13.300583	1.209607	-1.209607
Gd	15.718870	-1.209607	-1.209607
Gd	10.882295	1.209607	-3.628821
O	13.404969	-1.104701	-1.104701
O	8.568394	1.104701	-3.733727
O	10.777908	-1.104701	-3.733727
O	10.986681	1.314513	-1.314513
O	15.614484	1.104701	-1.104701
O	10.986681	3.523915	-3.523915
O	13.196196	3.523915	-1.314513
O	13.196196	1.314513	-3.523915
As	0.000000	-4.838428	-4.838428
As	2.418288	-7.257642	-7.257642
Gd	-1.209144	-6.048035	-8.467249
Gd	3.627432	-3.628821	-6.048035
Gd	6.045719	-6.048035	-6.048035
Gd	1.209144	-3.628821	-8.467249
O	3.731818	-5.943130	-5.943130
O	-1.104757	-3.733727	-8.572155
O	1.104757	-5.943130	-8.572155
O	1.313531	-3.523915	-6.152941
O	5.941333	-3.733727	-5.943130
O	1.313530	-1.314513	-8.362344
O	3.523045	-1.314513	-6.152941
O	3.523045	-3.523915	-8.362344
As	4.836575	0.000000	-4.838428
As	7.254863	-2.419214	-7.257642
Gd	3.627432	-1.209607	-8.467249
Gd	8.464007	1.209607	-6.048035
Gd	10.882295	-1.209607	-6.048035
Gd	6.045719	1.209607	-8.467249
O	8.568394	-1.104701	-5.943130
O	3.731818	1.104701	-8.572155
O	5.941333	-1.104701	-8.572155
O	6.150106	1.314513	-6.152941
O	10.777908	1.104701	-5.943130
O	6.150106	3.523915	-8.362344
O	8.359620	3.523915	-6.152941
O	8.359620	1.314513	-8.362344
