40

As	0.000000	0.000000	0.000000
K	2.248975	2.248975	2.248975
O	0.000000	2.248975	2.248975
O	2.248975	0.000000	2.248975
O	2.248975	2.248975	0.000000
As	0.000000	0.000000	4.497951
K	2.248975	2.248975	6.746926
O	0.000000	2.248975	6.746926
O	2.248975	0.000000	6.746926
O	2.248975	2.248975	4.497951
As	0.000000	4.497951	0.000000
K	2.248975	6.746926	2.248975
O	0.000000	6.746926	2.248975
O	2.248975	4.497951	2.248975
O	2.248975	6.746926	0.000000
As	0.000000	4.497951	4.497951
K	2.248975	6.746926	6.746926
O	0.000000	6.746926	6.746926
O	2.248975	4.497951	6.746926
O	2.248975	6.746926	4.497951
As	4.497951	0.000000	0.000000
K	6.746926	2.248975	2.248975
O	4.497951	2.248975	2.248975
O	6.746926	0.000000	2.248975
O	6.746926	2.248975	0.000000
As	4.497951	0.000000	4.497951
K	6.746926	2.248975	6.746926
O	4.497951	2.248975	6.746926
O	6.746926	0.000000	6.746926
O	6.746926	2.248975	4.497951
As	4.497951	4.497951	0.000000
K	6.746926	6.746926	2.248975
O	4.497951	6.746926	2.248975
O	6.746926	4.497951	2.248975
O	6.746926	6.746926	0.000000
As	4.497951	4.497951	4.497951
K	6.746926	6.746926	6.746926
O	4.497951	6.746926	6.746926
O	6.746926	4.497951	6.746926
O	6.746926	6.746926	4.497951
