40

Mo	0.000000	0.000000	0.000000
N	1.786794	1.786794	1.786794
O	0.000000	1.786794	1.786794
O	1.786794	0.000000	1.786794
O	1.786794	1.786794	0.000000
Mo	0.000000	0.000000	3.573588
N	1.786794	1.786794	5.360381
O	0.000000	1.786794	5.360381
O	1.786794	0.000000	5.360381
O	1.786794	1.786794	3.573588
Mo	0.000000	3.573588	0.000000
N	1.786794	5.360381	1.786794
O	0.000000	5.360381	1.786794
O	1.786794	3.573588	1.786794
O	1.786794	5.360381	0.000000
Mo	0.000000	3.573588	3.573588
N	1.786794	5.360381	5.360381
O	0.000000	5.360381	5.360381
O	1.786794	3.573588	5.360381
O	1.786794	5.360381	3.573588
Mo	3.573588	0.000000	0.000000
N	5.360381	1.786794	1.786794
O	3.573588	1.786794	1.786794
O	5.360381	0.000000	1.786794
O	5.360381	1.786794	0.000000
Mo	3.573588	0.000000	3.573588
N	5.360381	1.786794	5.360381
O	3.573588	1.786794	5.360381
O	5.360381	0.000000	5.360381
O	5.360381	1.786794	3.573588
Mo	3.573588	3.573588	0.000000
N	5.360381	5.360381	1.786794
O	3.573588	5.360381	1.786794
O	5.360381	3.573588	1.786794
O	5.360381	5.360381	0.000000
Mo	3.573588	3.573588	3.573588
N	5.360381	5.360381	5.360381
O	3.573588	5.360381	5.360381
O	5.360381	3.573588	5.360381
O	5.360381	5.360381	3.573588
