40

Co	0.000000	0.000000	0.000000
O	0.000000	1.944698	1.944698
O	1.944698	0.000000	1.944698
O	1.944698	1.944698	0.000000
Rh	1.944698	1.944698	1.944698
Co	0.000000	0.000000	3.889396
O	0.000000	1.944698	5.834094
O	1.944698	0.000000	5.834094
O	1.944698	1.944698	3.889396
Rh	1.944698	1.944698	5.834094
Co	0.000000	3.889396	0.000000
O	0.000000	5.834094	1.944698
O	1.944698	3.889396	1.944698
O	1.944698	5.834094	0.000000
Rh	1.944698	5.834094	1.944698
Co	0.000000	3.889396	3.889396
O	0.000000	5.834094	5.834094
O	1.944698	3.889396	5.834094
O	1.944698	5.834094	3.889396
Rh	1.944698	5.834094	5.834094
Co	3.889396	0.000000	0.000000
O	3.889396	1.944698	1.944698
O	5.834094	0.000000	1.944698
O	5.834094	1.944698	0.000000
Rh	5.834094	1.944698	1.944698
Co	3.889396	0.000000	3.889396
O	3.889396	1.944698	5.834094
O	5.834094	0.000000	5.834094
O	5.834094	1.944698	3.889396
Rh	5.834094	1.944698	5.834094
Co	3.889396	3.889396	0.000000
O	3.889396	5.834094	1.944698
O	5.834094	3.889396	1.944698
O	5.834094	5.834094	0.000000
Rh	5.834094	5.834094	1.944698
Co	3.889396	3.889396	3.889396
O	3.889396	5.834094	5.834094
O	5.834094	3.889396	5.834094
O	5.834094	5.834094	3.889396
Rh	5.834094	5.834094	5.834094
