40

K	2.629378	2.629378	2.629378
O	0.000000	2.629378	2.629378
O	2.629378	0.000000	2.629378
O	2.629378	2.629378	0.000000
S	0.000000	0.000000	0.000000
K	2.629378	2.629378	7.888134
O	0.000000	2.629378	7.888134
O	2.629378	0.000000	7.888134
O	2.629378	2.629378	5.258756
S	0.000000	0.000000	5.258756
K	2.629378	7.888134	2.629378
O	0.000000	7.888134	2.629378
O	2.629378	5.258756	2.629378
O	2.629378	7.888134	0.000000
S	0.000000	5.258756	0.000000
K	2.629378	7.888134	7.888134
O	0.000000	7.888134	7.888134
O	2.629378	5.258756	7.888134
O	2.629378	7.888134	5.258756
S	0.000000	5.258756	5.258756
K	7.888134	2.629378	2.629378
O	5.258756	2.629378	2.629378
O	7.888134	0.000000	2.629378
O	7.888134	2.629378	0.000000
S	5.258756	0.000000	0.000000
K	7.888134	2.629378	7.888134
O	5.258756	2.629378	7.888134
O	7.888134	0.000000	7.888134
O	7.888134	2.629378	5.258756
S	5.258756	0.000000	5.258756
K	7.888134	7.888134	2.629378
O	5.258756	7.888134	2.629378
O	7.888134	5.258756	2.629378
O	7.888134	7.888134	0.000000
S	5.258756	5.258756	0.000000
K	7.888134	7.888134	7.888134
O	5.258756	7.888134	7.888134
O	7.888134	5.258756	7.888134
O	7.888134	7.888134	5.258756
S	5.258756	5.258756	5.258756
