40

Be	0.000000	0.000000	0.000000
Ga	1.888728	1.888728	1.888728
O	1.888728	1.888728	0.000000
O	1.888728	0.000000	1.888728
O	0.000000	1.888728	1.888728
Be	0.000000	0.000000	3.777456
Ga	1.888728	1.888728	5.666183
O	1.888728	1.888728	3.777456
O	1.888728	0.000000	5.666183
O	0.000000	1.888728	5.666183
Be	0.000000	3.777456	0.000000
Ga	1.888728	5.666183	1.888728
O	1.888728	5.666183	0.000000
O	1.888728	3.777456	1.888728
O	0.000000	5.666183	1.888728
Be	0.000000	3.777456	3.777456
Ga	1.888728	5.666183	5.666183
O	1.888728	5.666183	3.777456
O	1.888728	3.777456	5.666183
O	0.000000	5.666183	5.666183
Be	3.777456	0.000000	0.000000
Ga	5.666183	1.888728	1.888728
O	5.666183	1.888728	0.000000
O	5.666183	0.000000	1.888728
O	3.777456	1.888728	1.888728
Be	3.777456	0.000000	3.777456
Ga	5.666183	1.888728	5.666183
O	5.666183	1.888728	3.777456
O	5.666183	0.000000	5.666183
O	3.777456	1.888728	5.666183
Be	3.777456	3.777456	0.000000
Ga	5.666183	5.666183	1.888728
O	5.666183	5.666183	0.000000
O	5.666183	3.777456	1.888728
O	3.777456	5.666183	1.888728
Be	3.777456	3.777456	3.777456
Ga	5.666183	5.666183	5.666183
O	5.666183	5.666183	3.777456
O	5.666183	3.777456	5.666183
O	3.777456	5.666183	5.666183
