40

O	0.000000	1.909643	1.909643
O	1.909643	0.000000	1.909643
O	1.909643	1.909643	0.000000
Pt	0.000000	0.000000	0.000000
Zn	1.909643	1.909643	1.909643
O	0.000000	1.909643	5.728930
O	1.909643	0.000000	5.728930
O	1.909643	1.909643	3.819287
Pt	0.000000	0.000000	3.819287
Zn	1.909643	1.909643	5.728930
O	0.000000	5.728930	1.909643
O	1.909643	3.819287	1.909643
O	1.909643	5.728930	0.000000
Pt	0.000000	3.819287	0.000000
Zn	1.909643	5.728930	1.909643
O	0.000000	5.728930	5.728930
O	1.909643	3.819287	5.728930
O	1.909643	5.728930	3.819287
Pt	0.000000	3.819287	3.819287
Zn	1.909643	5.728930	5.728930
O	3.819287	1.909643	1.909643
O	5.728930	0.000000	1.909643
O	5.728930	1.909643	0.000000
Pt	3.819287	0.000000	0.000000
Zn	5.728930	1.909643	1.909643
O	3.819287	1.909643	5.728930
O	5.728930	0.000000	5.728930
O	5.728930	1.909643	3.819287
Pt	3.819287	0.000000	3.819287
Zn	5.728930	1.909643	5.728930
O	3.819287	5.728930	1.909643
O	5.728930	3.819287	1.909643
O	5.728930	5.728930	0.000000
Pt	3.819287	3.819287	0.000000
Zn	5.728930	5.728930	1.909643
O	3.819287	5.728930	5.728930
O	5.728930	3.819287	5.728930
O	5.728930	5.728930	3.819287
Pt	3.819287	3.819287	3.819287
Zn	5.728930	5.728930	5.728930
