40

Al	0.000000	0.000000	0.000000
Ge	1.855870	1.855870	1.855870
O	1.855870	0.000000	1.855870
O	0.000000	1.855870	1.855870
O	1.855870	1.855870	0.000000
Al	0.000000	0.000000	3.711738
Ge	1.855870	1.855870	5.567608
O	1.855870	0.000000	5.567608
O	0.000000	1.855870	5.567608
O	1.855870	1.855870	3.711738
Al	0.000000	3.711738	0.000000
Ge	1.855870	5.567608	1.855870
O	1.855870	3.711738	1.855870
O	0.000000	5.567608	1.855870
O	1.855870	5.567608	0.000000
Al	0.000000	3.711738	3.711738
Ge	1.855870	5.567608	5.567608
O	1.855870	3.711738	5.567608
O	0.000000	5.567608	5.567608
O	1.855870	5.567608	3.711738
Al	3.711738	0.000000	0.000000
Ge	5.567608	1.855870	1.855870
O	5.567608	0.000000	1.855870
O	3.711738	1.855870	1.855870
O	5.567608	1.855870	0.000000
Al	3.711738	0.000000	3.711738
Ge	5.567608	1.855870	5.567608
O	5.567608	0.000000	5.567608
O	3.711738	1.855870	5.567608
O	5.567608	1.855870	3.711738
Al	3.711738	3.711738	0.000000
Ge	5.567608	5.567608	1.855870
O	5.567608	3.711738	1.855870
O	3.711738	5.567608	1.855870
O	5.567608	5.567608	0.000000
Al	3.711738	3.711738	3.711738
Ge	5.567608	5.567608	5.567608
O	5.567608	3.711738	5.567608
O	3.711738	5.567608	5.567608
O	5.567608	5.567608	3.711738
