40

Na	1.914075	1.914075	1.914075
O	1.914075	1.914075	0.000000
O	1.914075	0.000000	1.914075
O	0.000000	1.914075	1.914075
Ti	0.000000	0.000000	0.000000
Na	1.914075	1.914075	5.742232
O	1.914075	1.914075	3.828158
O	1.914075	0.000000	5.742232
O	0.000000	1.914075	5.742232
Ti	0.000000	0.000000	3.828158
Na	1.914075	5.742232	1.914075
O	1.914075	5.742232	0.000000
O	1.914075	3.828158	1.914075
O	0.000000	5.742232	1.914075
Ti	0.000000	3.828158	0.000000
Na	1.914075	5.742232	5.742232
O	1.914075	5.742232	3.828158
O	1.914075	3.828158	5.742232
O	0.000000	5.742232	5.742232
Ti	0.000000	3.828158	3.828158
Na	5.742232	1.914075	1.914075
O	5.742232	1.914075	0.000000
O	5.742232	0.000000	1.914075
O	3.828158	1.914075	1.914075
Ti	3.828158	0.000000	0.000000
Na	5.742232	1.914075	5.742232
O	5.742232	1.914075	3.828158
O	5.742232	0.000000	5.742232
O	3.828158	1.914075	5.742232
Ti	3.828158	0.000000	3.828158
Na	5.742232	5.742232	1.914075
O	5.742232	5.742232	0.000000
O	5.742232	3.828158	1.914075
O	3.828158	5.742232	1.914075
Ti	3.828158	3.828158	0.000000
Na	5.742232	5.742232	5.742232
O	5.742232	5.742232	3.828158
O	5.742232	3.828158	5.742232
O	3.828158	5.742232	5.742232
Ti	3.828158	3.828158	3.828158
