40

Ge	0.000000	0.000000	0.000000
O	0.000000	1.860645	1.860645
O	1.860645	0.000000	1.860645
O	1.860645	1.860645	0.000000
P	1.860645	1.860645	1.860645
Ge	0.000000	0.000000	3.721291
O	0.000000	1.860645	5.581936
O	1.860645	0.000000	5.581936
O	1.860645	1.860645	3.721291
P	1.860645	1.860645	5.581936
Ge	0.000000	3.721291	0.000000
O	0.000000	5.581936	1.860645
O	1.860645	3.721291	1.860645
O	1.860645	5.581936	0.000000
P	1.860645	5.581936	1.860645
Ge	0.000000	3.721291	3.721291
O	0.000000	5.581936	5.581936
O	1.860645	3.721291	5.581936
O	1.860645	5.581936	3.721291
P	1.860645	5.581936	5.581936
Ge	3.721291	0.000000	0.000000
O	3.721291	1.860645	1.860645
O	5.581936	0.000000	1.860645
O	5.581936	1.860645	0.000000
P	5.581936	1.860645	1.860645
Ge	3.721291	0.000000	3.721291
O	3.721291	1.860645	5.581936
O	5.581936	0.000000	5.581936
O	5.581936	1.860645	3.721291
P	5.581936	1.860645	5.581936
Ge	3.721291	3.721291	0.000000
O	3.721291	5.581936	1.860645
O	5.581936	3.721291	1.860645
O	5.581936	5.581936	0.000000
P	5.581936	5.581936	1.860645
Ge	3.721291	3.721291	3.721291
O	3.721291	5.581936	5.581936
O	5.581936	3.721291	5.581936
O	5.581936	5.581936	3.721291
P	5.581936	5.581936	5.581936
