40

Dy	0.000000	0.000000	0.000000
O	2.051380	2.051380	0.000000
O	2.051380	0.000000	2.051380
O	0.000000	2.051380	2.051380
Sn	2.051380	2.051380	2.051380
Dy	0.000000	0.000000	4.102755
O	2.051380	2.051380	4.102755
O	2.051380	0.000000	6.154136
O	0.000000	2.051380	6.154136
Sn	2.051380	2.051380	6.154136
Dy	0.000000	4.102755	0.000000
O	2.051380	6.154136	0.000000
O	2.051380	4.102755	2.051380
O	0.000000	6.154136	2.051380
Sn	2.051380	6.154136	2.051380
Dy	0.000000	4.102755	4.102755
O	2.051380	6.154136	4.102755
O	2.051380	4.102755	6.154136
O	0.000000	6.154136	6.154136
Sn	2.051380	6.154136	6.154136
Dy	4.102755	0.000000	0.000000
O	6.154136	2.051380	0.000000
O	6.154136	0.000000	2.051380
O	4.102755	2.051380	2.051380
Sn	6.154136	2.051380	2.051380
Dy	4.102755	0.000000	4.102755
O	6.154136	2.051380	4.102755
O	6.154136	0.000000	6.154136
O	4.102755	2.051380	6.154136
Sn	6.154136	2.051380	6.154136
Dy	4.102755	4.102755	0.000000
O	6.154136	6.154136	0.000000
O	6.154136	4.102755	2.051380
O	4.102755	6.154136	2.051380
Sn	6.154136	6.154136	2.051380
Dy	4.102755	4.102755	4.102755
O	6.154136	6.154136	4.102755
O	6.154136	4.102755	6.154136
O	4.102755	6.154136	6.154136
Sn	6.154136	6.154136	6.154136
