40

C	0.000000	0.000000	0.000000
Co	1.831048	1.831048	1.831048
O	0.000000	1.831048	1.831048
O	1.831048	0.000000	1.831048
O	1.831048	1.831048	0.000000
C	0.000000	0.000000	3.662097
Co	1.831048	1.831048	5.493145
O	0.000000	1.831048	5.493145
O	1.831048	0.000000	5.493145
O	1.831048	1.831048	3.662097
C	0.000000	3.662097	0.000000
Co	1.831048	5.493145	1.831048
O	0.000000	5.493145	1.831048
O	1.831048	3.662097	1.831048
O	1.831048	5.493145	0.000000
C	0.000000	3.662097	3.662097
Co	1.831048	5.493145	5.493145
O	0.000000	5.493145	5.493145
O	1.831048	3.662097	5.493145
O	1.831048	5.493145	3.662097
C	3.662097	0.000000	0.000000
Co	5.493145	1.831048	1.831048
O	3.662097	1.831048	1.831048
O	5.493145	0.000000	1.831048
O	5.493145	1.831048	0.000000
C	3.662097	0.000000	3.662097
Co	5.493145	1.831048	5.493145
O	3.662097	1.831048	5.493145
O	5.493145	0.000000	5.493145
O	5.493145	1.831048	3.662097
C	3.662097	3.662097	0.000000
Co	5.493145	5.493145	1.831048
O	3.662097	5.493145	1.831048
O	5.493145	3.662097	1.831048
O	5.493145	5.493145	0.000000
C	3.662097	3.662097	3.662097
Co	5.493145	5.493145	5.493145
O	3.662097	5.493145	5.493145
O	5.493145	3.662097	5.493145
O	5.493145	5.493145	3.662097
