40

Ni	1.842641	1.842641	1.842641
O	1.842641	1.842641	0.000000
O	1.842641	0.000000	1.842641
O	0.000000	1.842641	1.842641
Re	0.000000	0.000000	0.000000
Ni	1.842641	1.842641	5.527935
O	1.842641	1.842641	3.685295
O	1.842641	0.000000	5.527935
O	0.000000	1.842641	5.527935
Re	0.000000	0.000000	3.685295
Ni	1.842641	5.527935	1.842641
O	1.842641	5.527935	0.000000
O	1.842641	3.685295	1.842641
O	0.000000	5.527935	1.842641
Re	0.000000	3.685295	0.000000
Ni	1.842641	5.527935	5.527935
O	1.842641	5.527935	3.685295
O	1.842641	3.685295	5.527935
O	0.000000	5.527935	5.527935
Re	0.000000	3.685295	3.685295
Ni	5.527935	1.842641	1.842641
O	5.527935	1.842641	0.000000
O	5.527935	0.000000	1.842641
O	3.685295	1.842641	1.842641
Re	3.685295	0.000000	0.000000
Ni	5.527935	1.842641	5.527935
O	5.527935	1.842641	3.685295
O	5.527935	0.000000	5.527935
O	3.685295	1.842641	5.527935
Re	3.685295	0.000000	3.685295
Ni	5.527935	5.527935	1.842641
O	5.527935	5.527935	0.000000
O	5.527935	3.685295	1.842641
O	3.685295	5.527935	1.842641
Re	3.685295	3.685295	0.000000
Ni	5.527935	5.527935	5.527935
O	5.527935	5.527935	3.685295
O	5.527935	3.685295	5.527935
O	3.685295	5.527935	5.527935
Re	3.685295	3.685295	3.685295
