40

Ni	1.878633	1.878633	1.878633
O	0.000000	1.878633	1.878633
O	1.878633	0.000000	1.878633
O	1.878633	1.878633	0.000000
Re	0.000000	0.000000	0.000000
Ni	1.878633	1.878633	5.635900
O	0.000000	1.878633	5.635900
O	1.878633	0.000000	5.635900
O	1.878633	1.878633	3.757267
Re	0.000000	0.000000	3.757267
Ni	1.878633	5.635900	1.878633
O	0.000000	5.635900	1.878633
O	1.878633	3.757267	1.878633
O	1.878633	5.635900	0.000000
Re	0.000000	3.757267	0.000000
Ni	1.878633	5.635900	5.635900
O	0.000000	5.635900	5.635900
O	1.878633	3.757267	5.635900
O	1.878633	5.635900	3.757267
Re	0.000000	3.757267	3.757267
Ni	5.635900	1.878633	1.878633
O	3.757267	1.878633	1.878633
O	5.635900	0.000000	1.878633
O	5.635900	1.878633	0.000000
Re	3.757267	0.000000	0.000000
Ni	5.635900	1.878633	5.635900
O	3.757267	1.878633	5.635900
O	5.635900	0.000000	5.635900
O	5.635900	1.878633	3.757267
Re	3.757267	0.000000	3.757267
Ni	5.635900	5.635900	1.878633
O	3.757267	5.635900	1.878633
O	5.635900	3.757267	1.878633
O	5.635900	5.635900	0.000000
Re	3.757267	3.757267	0.000000
Ni	5.635900	5.635900	5.635900
O	3.757267	5.635900	5.635900
O	5.635900	3.757267	5.635900
O	5.635900	5.635900	3.757267
Re	3.757267	3.757267	3.757267
