40

B	0.000000	0.000000	0.000000
Hg	2.084558	2.084558	2.084558
O	2.084558	2.084558	0.000000
O	2.084558	0.000000	2.084558
O	0.000000	2.084558	2.084558
B	0.000000	0.000000	4.169115
Hg	2.084558	2.084558	6.253673
O	2.084558	2.084558	4.169115
O	2.084558	0.000000	6.253673
O	0.000000	2.084558	6.253673
B	0.000000	4.169115	0.000000
Hg	2.084558	6.253673	2.084558
O	2.084558	6.253673	0.000000
O	2.084558	4.169115	2.084558
O	0.000000	6.253673	2.084558
B	0.000000	4.169115	4.169115
Hg	2.084558	6.253673	6.253673
O	2.084558	6.253673	4.169115
O	2.084558	4.169115	6.253673
O	0.000000	6.253673	6.253673
B	4.169115	0.000000	0.000000
Hg	6.253673	2.084558	2.084558
O	6.253673	2.084558	0.000000
O	6.253673	0.000000	2.084558
O	4.169115	2.084558	2.084558
B	4.169115	0.000000	4.169115
Hg	6.253673	2.084558	6.253673
O	6.253673	2.084558	4.169115
O	6.253673	0.000000	6.253673
O	4.169115	2.084558	6.253673
B	4.169115	4.169115	0.000000
Hg	6.253673	6.253673	2.084558
O	6.253673	6.253673	0.000000
O	6.253673	4.169115	2.084558
O	4.169115	6.253673	2.084558
B	4.169115	4.169115	4.169115
Hg	6.253673	6.253673	6.253673
O	6.253673	6.253673	4.169115
O	6.253673	4.169115	6.253673
O	4.169115	6.253673	6.253673
