40

Cr	0.000000	0.000000	0.000000
Cs	2.228090	2.228090	2.228090
O	0.000000	2.228090	2.228090
O	2.228090	0.000000	2.228090
O	2.228090	2.228090	0.000000
Cr	0.000000	0.000000	4.456180
Cs	2.228090	2.228090	6.684270
O	0.000000	2.228090	6.684270
O	2.228090	0.000000	6.684270
O	2.228090	2.228090	4.456180
Cr	0.000000	4.456180	0.000000
Cs	2.228090	6.684270	2.228090
O	0.000000	6.684270	2.228090
O	2.228090	4.456180	2.228090
O	2.228090	6.684270	0.000000
Cr	0.000000	4.456180	4.456180
Cs	2.228090	6.684270	6.684270
O	0.000000	6.684270	6.684270
O	2.228090	4.456180	6.684270
O	2.228090	6.684270	4.456180
Cr	4.456180	0.000000	0.000000
Cs	6.684270	2.228090	2.228090
O	4.456180	2.228090	2.228090
O	6.684270	0.000000	2.228090
O	6.684270	2.228090	0.000000
Cr	4.456180	0.000000	4.456180
Cs	6.684270	2.228090	6.684270
O	4.456180	2.228090	6.684270
O	6.684270	0.000000	6.684270
O	6.684270	2.228090	4.456180
Cr	4.456180	4.456180	0.000000
Cs	6.684270	6.684270	2.228090
O	4.456180	6.684270	2.228090
O	6.684270	4.456180	2.228090
O	6.684270	6.684270	0.000000
Cr	4.456180	4.456180	4.456180
Cs	6.684270	6.684270	6.684270
O	4.456180	6.684270	6.684270
O	6.684270	4.456180	6.684270
O	6.684270	6.684270	4.456180
