40

Na	0.000000	0.000000	0.000000
O	0.000000	1.993947	1.993947
O	1.993947	0.000000	1.993947
O	1.993947	1.993947	0.000000
Pd	1.993947	1.993947	1.993947
Na	0.000000	0.000000	3.987894
O	0.000000	1.993947	5.981841
O	1.993947	0.000000	5.981841
O	1.993947	1.993947	3.987894
Pd	1.993947	1.993947	5.981841
Na	0.000000	3.987894	0.000000
O	0.000000	5.981841	1.993947
O	1.993947	3.987894	1.993947
O	1.993947	5.981841	0.000000
Pd	1.993947	5.981841	1.993947
Na	0.000000	3.987894	3.987894
O	0.000000	5.981841	5.981841
O	1.993947	3.987894	5.981841
O	1.993947	5.981841	3.987894
Pd	1.993947	5.981841	5.981841
Na	3.987894	0.000000	0.000000
O	3.987894	1.993947	1.993947
O	5.981841	0.000000	1.993947
O	5.981841	1.993947	0.000000
Pd	5.981841	1.993947	1.993947
Na	3.987894	0.000000	3.987894
O	3.987894	1.993947	5.981841
O	5.981841	0.000000	5.981841
O	5.981841	1.993947	3.987894
Pd	5.981841	1.993947	5.981841
Na	3.987894	3.987894	0.000000
O	3.987894	5.981841	1.993947
O	5.981841	3.987894	1.993947
O	5.981841	5.981841	0.000000
Pd	5.981841	5.981841	1.993947
Na	3.987894	3.987894	3.987894
O	3.987894	5.981841	5.981841
O	5.981841	3.987894	5.981841
O	5.981841	5.981841	3.987894
Pd	5.981841	5.981841	5.981841
