40

Al	0.000000	0.000000	0.000000
In	2.026490	2.026490	2.026490
O	2.026490	2.026490	0.000000
O	0.000000	2.026490	2.026490
O	2.026490	0.000000	2.026490
Al	0.000000	0.000000	4.052983
In	2.026490	2.026490	6.079473
O	2.026490	2.026490	4.052983
O	0.000000	2.026490	6.079473
O	2.026490	0.000000	6.079473
Al	0.000000	4.052983	0.000000
In	2.026490	6.079473	2.026490
O	2.026490	6.079473	0.000000
O	0.000000	6.079473	2.026490
O	2.026490	4.052983	2.026490
Al	0.000000	4.052983	4.052983
In	2.026490	6.079473	6.079473
O	2.026490	6.079473	4.052983
O	0.000000	6.079473	6.079473
O	2.026490	4.052983	6.079473
Al	4.052983	0.000000	0.000000
In	6.079473	2.026490	2.026490
O	6.079473	2.026490	0.000000
O	4.052983	2.026490	2.026490
O	6.079473	0.000000	2.026490
Al	4.052983	0.000000	4.052983
In	6.079473	2.026490	6.079473
O	6.079473	2.026490	4.052983
O	4.052983	2.026490	6.079473
O	6.079473	0.000000	6.079473
Al	4.052983	4.052983	0.000000
In	6.079473	6.079473	2.026490
O	6.079473	6.079473	0.000000
O	4.052983	6.079473	2.026490
O	6.079473	4.052983	2.026490
Al	4.052983	4.052983	4.052983
In	6.079473	6.079473	6.079473
O	6.079473	6.079473	4.052983
O	4.052983	6.079473	6.079473
O	6.079473	4.052983	6.079473
