40

Cl	1.941392	1.941392	1.941392
O	0.000000	1.941392	1.941392
O	1.941392	0.000000	1.941392
O	1.941392	1.941392	0.000000
Pd	0.000000	0.000000	0.000000
Cl	1.941392	1.941392	5.824175
O	0.000000	1.941392	5.824175
O	1.941392	0.000000	5.824175
O	1.941392	1.941392	3.882783
Pd	0.000000	0.000000	3.882783
Cl	1.941392	5.824175	1.941392
O	0.000000	5.824175	1.941392
O	1.941392	3.882783	1.941392
O	1.941392	5.824175	0.000000
Pd	0.000000	3.882783	0.000000
Cl	1.941392	5.824175	5.824175
O	0.000000	5.824175	5.824175
O	1.941392	3.882783	5.824175
O	1.941392	5.824175	3.882783
Pd	0.000000	3.882783	3.882783
Cl	5.824175	1.941392	1.941392
O	3.882783	1.941392	1.941392
O	5.824175	0.000000	1.941392
O	5.824175	1.941392	0.000000
Pd	3.882783	0.000000	0.000000
Cl	5.824175	1.941392	5.824175
O	3.882783	1.941392	5.824175
O	5.824175	0.000000	5.824175
O	5.824175	1.941392	3.882783
Pd	3.882783	0.000000	3.882783
Cl	5.824175	5.824175	1.941392
O	3.882783	5.824175	1.941392
O	5.824175	3.882783	1.941392
O	5.824175	5.824175	0.000000
Pd	3.882783	3.882783	0.000000
Cl	5.824175	5.824175	5.824175
O	3.882783	5.824175	5.824175
O	5.824175	3.882783	5.824175
O	5.824175	5.824175	3.882783
Pd	3.882783	3.882783	3.882783
