40

Cl	1.942024	1.942024	1.942024
O	0.000000	1.942024	1.942024
O	1.942024	0.000000	1.942024
O	1.942024	1.942024	0.000000
Pd	0.000000	0.000000	0.000000
Cl	1.942024	1.942024	5.826071
O	0.000000	1.942024	5.826071
O	1.942024	0.000000	5.826071
O	1.942024	1.942024	3.884047
Pd	0.000000	0.000000	3.884047
Cl	1.942024	5.826071	1.942024
O	0.000000	5.826071	1.942024
O	1.942024	3.884047	1.942024
O	1.942024	5.826071	0.000000
Pd	0.000000	3.884047	0.000000
Cl	1.942024	5.826071	5.826071
O	0.000000	5.826071	5.826071
O	1.942024	3.884047	5.826071
O	1.942024	5.826071	3.884047
Pd	0.000000	3.884047	3.884047
Cl	5.826071	1.942024	1.942024
O	3.884047	1.942024	1.942024
O	5.826071	0.000000	1.942024
O	5.826071	1.942024	0.000000
Pd	3.884047	0.000000	0.000000
Cl	5.826071	1.942024	5.826071
O	3.884047	1.942024	5.826071
O	5.826071	0.000000	5.826071
O	5.826071	1.942024	3.884047
Pd	3.884047	0.000000	3.884047
Cl	5.826071	5.826071	1.942024
O	3.884047	5.826071	1.942024
O	5.826071	3.884047	1.942024
O	5.826071	5.826071	0.000000
Pd	3.884047	3.884047	0.000000
Cl	5.826071	5.826071	5.826071
O	3.884047	5.826071	5.826071
O	5.826071	3.884047	5.826071
O	5.826071	5.826071	3.884047
Pd	3.884047	3.884047	3.884047
