112

Ag	0.000000	0.000000	0.000000
Ag	2.231688	-2.232216	-2.232216
O	3.538039	-0.924844	-0.924844
O	-0.925338	0.924844	-3.539589
O	0.925338	-0.924844	-3.539589
O	1.306351	1.307372	-1.307372
O	5.388715	0.924844	-0.924844
O	1.306351	3.157061	-3.157061
O	3.157026	3.157061	-1.307372
O	3.157026	1.307372	-3.157061
Os	-1.115844	-1.116108	-3.348325
Os	3.347533	1.116108	-1.116108
Os	5.579221	-1.116108	-1.116108
Os	1.115844	1.116108	-3.348325
Ag	4.463377	4.464433	0.000000
Ag	6.695065	2.232216	-2.232216
O	8.001416	3.539589	-0.924844
O	3.538039	5.389277	-3.539589
O	5.388715	3.539589	-3.539589
O	5.769727	5.771805	-1.307372
O	9.852091	5.389277	-0.924844
O	5.769727	7.621494	-3.157061
O	7.620403	7.621494	-1.307372
O	7.620403	5.771805	-3.157061
Os	3.347533	3.348325	-3.348325
Os	7.810909	5.580541	-1.116108
Os	10.042598	3.348325	-1.116108
Os	5.579221	5.580541	-3.348325
Ag	-4.463377	0.000000	-4.464433
Ag	-2.231688	-2.232216	-6.696649
O	-0.925338	-0.924844	-5.389277
O	-5.388715	0.924844	-8.004022
O	-3.538039	-0.924844	-8.004022
O	-3.157026	1.307372	-5.771805
O	0.925338	0.924844	-5.389277
O	-3.157026	3.157061	-7.621494
O	-1.306351	3.157061	-5.771805
O	-1.306351	1.307372	-7.621494
Os	-5.579221	-1.116108	-7.812758
Os	-1.115844	1.116108	-5.580541
Os	1.115844	-1.116108	-5.580541
Os	-3.347533	1.116108	-7.812758
Ag	0.000000	4.464433	-4.464433
Ag	2.231688	2.232216	-6.696649
O	3.538039	3.539589	-5.389277
O	-0.925338	5.389277	-8.004022
O	0.925338	3.539589	-8.004022
O	1.306351	5.771805	-5.771805
O	5.388715	5.389277	-5.389277
O	1.306351	7.621494	-7.621494
O	3.157026	7.621494	-5.771805
O	3.157026	5.771805	-7.621494
Os	-1.115844	3.348325	-7.812758
Os	3.347533	5.580541	-5.580541
Os	5.579221	3.348325	-5.580541
Os	1.115844	5.580541	-7.812758
Ag	4.463377	-4.464433	0.000000
Ag	6.695065	-6.696649	-2.232216
O	8.001416	-5.389277	-0.924844
O	3.538039	-3.539589	-3.539589
O	5.388715	-5.389277	-3.539589
O	5.769727	-3.157061	-1.307372
O	9.852091	-3.539589	-0.924844
O	5.769727	-1.307372	-3.157061
O	7.620403	-1.307372	-1.307372
O	7.620403	-3.157061	-3.157061
Os	3.347533	-5.580541	-3.348325
Os	7.810909	-3.348325	-1.116108
Os	10.042598	-5.580541	-1.116108
Os	5.579221	-3.348325	-3.348325
Ag	8.926753	0.000000	0.000000
Ag	11.158442	-2.232216	-2.232216
O	12.464792	-0.924844	-0.924844
O	8.001416	0.924844	-3.539589
O	9.852091	-0.924844	-3.539589
O	10.233104	1.307372	-1.307372
O	14.315468	0.924844	-0.924844
O	10.233104	3.157061	-3.157061
O	12.083780	3.157061	-1.307372
O	12.083780	1.307372	-3.157061
Os	7.810909	-1.116108	-3.348325
Os	12.274286	1.116108	-1.116108
Os	14.505974	-1.116108	-1.116108
Os	10.042598	1.116108	-3.348325
Ag	0.000000	-4.464433	-4.464433
Ag	2.231688	-6.696649	-6.696649
O	3.538039	-5.389277	-5.389277
O	-0.925338	-3.539589	-8.004022
O	0.925338	-5.389277	-8.004022
O	1.306351	-3.157061	-5.771805
O	5.388715	-3.539589	-5.389277
O	1.306351	-1.307372	-7.621494
O	3.157026	-1.307372	-5.771805
O	3.157026	-3.157061	-7.621494
Os	-1.115844	-5.580541	-7.812758
Os	3.347533	-3.348325	-5.580541
Os	5.579221	-5.580541	-5.580541
Os	1.115844	-3.348325	-7.812758
Ag	4.463377	0.000000	-4.464433
Ag	6.695065	-2.232216	-6.696649
O	8.001416	-0.924844	-5.389277
O	3.538039	0.924844	-8.004022
O	5.388715	-0.924844	-8.004022
O	5.769727	1.307372	-5.771805
O	9.852091	0.924844	-5.389277
O	5.769727	3.157061	-7.621494
O	7.620403	3.157061	-5.771805
O	7.620403	1.307372	-7.621494
Os	3.347533	-1.116108	-7.812758
Os	7.810909	1.116108	-5.580541
Os	10.042598	-1.116108	-5.580541
Os	5.579221	1.116108	-7.812758
