112

Cd	0.000000	0.000000	0.000000
Cd	2.393924	-2.394314	-2.394314
O	3.702289	-1.085268	-1.085268
O	-1.085549	1.085268	-3.703359
O	1.085549	-1.085268	-3.703359
O	1.308375	1.309045	-1.309045
O	5.873397	1.085268	-1.085268
O	1.308375	3.479582	-3.479582
O	3.479473	3.479582	-1.309045
O	3.479473	1.309045	-3.479582
Tb	-1.196962	-1.197157	-3.591470
Tb	1.196962	1.197157	-3.591470
Tb	3.590886	1.197157	-1.197157
Tb	5.984810	-1.197157	-1.197157
Cd	4.787845	4.788630	0.000000
Cd	7.181769	2.394316	-2.394314
O	8.490134	3.703362	-1.085268
O	3.702296	5.873898	-3.703359
O	5.873394	3.703362	-3.703359
O	6.096220	6.097675	-1.309045
O	10.661242	5.873898	-1.085268
O	6.096220	8.268212	-3.479582
O	8.267318	8.268212	-1.309045
O	8.267318	6.097675	-3.479582
Tb	3.590883	3.591473	-3.591470
Tb	5.984807	5.985787	-3.591470
Tb	8.378731	5.985787	-1.197157
Tb	10.772655	3.591473	-1.197157
Cd	-4.787845	0.000000	-4.788630
Cd	-2.393921	-2.394314	-7.182943
O	-1.085556	-1.085268	-5.873898
O	-5.873394	1.085268	-8.491989
O	-3.702296	-1.085268	-8.491989
O	-3.479470	1.309045	-6.097675
O	1.085552	1.085268	-5.873898
O	-3.479470	3.479582	-8.268212
O	-1.308372	3.479582	-6.097675
O	-1.308372	1.309045	-8.268212
Tb	-5.984807	-1.197157	-8.380100
Tb	-3.590883	1.197157	-8.380100
Tb	-1.196959	1.197157	-5.985787
Tb	1.196965	-1.197157	-5.985787
Cd	0.000000	4.788630	-4.788630
Cd	2.393924	2.394316	-7.182943
O	3.702289	3.703362	-5.873898
O	-1.085549	5.873898	-8.491989
O	1.085549	3.703362	-8.491989
O	1.308375	6.097675	-6.097675
O	5.873397	5.873898	-5.873898
O	1.308375	8.268212	-8.268212
O	3.479473	8.268212	-6.097675
O	3.479473	6.097675	-8.268212
Tb	-1.196962	3.591473	-8.380100
Tb	1.196962	5.985787	-8.380100
Tb	3.590886	5.985787	-5.985787
Tb	5.984810	3.591473	-5.985787
Cd	4.787845	-4.788630	0.000000
Cd	7.181769	-7.182943	-2.394314
O	8.490134	-5.873898	-1.085268
O	3.702296	-3.703361	-3.703359
O	5.873394	-5.873898	-3.703359
O	6.096220	-3.479584	-1.309045
O	10.661242	-3.703361	-1.085268
O	6.096220	-1.309048	-3.479582
O	8.267318	-1.309048	-1.309045
O	8.267318	-3.479584	-3.479582
Tb	3.590883	-5.985787	-3.591470
Tb	5.984807	-3.591473	-3.591470
Tb	8.378731	-3.591473	-1.197157
Tb	10.772655	-5.985787	-1.197157
Cd	9.575690	0.000000	0.000000
Cd	11.969614	-2.394314	-2.394314
O	13.277980	-1.085268	-1.085268
O	8.490142	1.085268	-3.703359
O	10.661239	-1.085268	-3.703359
O	10.884066	1.309045	-1.309045
O	15.449087	1.085268	-1.085268
O	10.884066	3.479582	-3.479582
O	13.055163	3.479582	-1.309045
O	13.055163	1.309045	-3.479582
Tb	8.378728	-1.197157	-3.591470
Tb	10.772652	1.197157	-3.591470
Tb	13.166576	1.197157	-1.197157
Tb	15.560501	-1.197157	-1.197157
Cd	0.000000	-4.788630	-4.788630
Cd	2.393924	-7.182943	-7.182943
O	3.702289	-5.873898	-5.873898
O	-1.085549	-3.703361	-8.491989
O	1.085549	-5.873898	-8.491989
O	1.308375	-3.479584	-6.097675
O	5.873397	-3.703361	-5.873898
O	1.308375	-1.309048	-8.268212
O	3.479473	-1.309048	-6.097675
O	3.479473	-3.479584	-8.268212
Tb	-1.196962	-5.985787	-8.380100
Tb	1.196962	-3.591473	-8.380100
Tb	3.590886	-3.591473	-5.985787
Tb	5.984810	-5.985787	-5.985787
Cd	4.787845	0.000000	-4.788630
Cd	7.181769	-2.394314	-7.182943
O	8.490134	-1.085268	-5.873898
O	3.702296	1.085268	-8.491989
O	5.873394	-1.085268	-8.491989
O	6.096220	1.309045	-6.097675
O	10.661242	1.085268	-5.873898
O	6.096220	3.479582	-8.268212
O	8.267318	3.479582	-6.097675
O	8.267318	1.309045	-8.268212
Tb	3.590883	-1.197157	-8.380100
Tb	5.984807	1.197157	-8.380100
Tb	8.378731	1.197157	-5.985787
Tb	10.772655	-1.197157	-5.985787
