40

O	1.896446	1.896446	0.000000
O	1.896446	0.000000	1.896446
O	0.000000	1.896446	1.896446
Re	0.000000	0.000000	0.000000
Zn	1.896446	1.896446	1.896446
O	1.896446	1.896446	3.792891
O	1.896446	0.000000	5.689337
O	0.000000	1.896446	5.689337
Re	0.000000	0.000000	3.792891
Zn	1.896446	1.896446	5.689337
O	1.896446	5.689337	0.000000
O	1.896446	3.792891	1.896446
O	0.000000	5.689337	1.896446
Re	0.000000	3.792891	0.000000
Zn	1.896446	5.689337	1.896446
O	1.896446	5.689337	3.792891
O	1.896446	3.792891	5.689337
O	0.000000	5.689337	5.689337
Re	0.000000	3.792891	3.792891
Zn	1.896446	5.689337	5.689337
O	5.689337	1.896446	0.000000
O	5.689337	0.000000	1.896446
O	3.792891	1.896446	1.896446
Re	3.792891	0.000000	0.000000
Zn	5.689337	1.896446	1.896446
O	5.689337	1.896446	3.792891
O	5.689337	0.000000	5.689337
O	3.792891	1.896446	5.689337
Re	3.792891	0.000000	3.792891
Zn	5.689337	1.896446	5.689337
O	5.689337	5.689337	0.000000
O	5.689337	3.792891	1.896446
O	3.792891	5.689337	1.896446
Re	3.792891	3.792891	0.000000
Zn	5.689337	5.689337	1.896446
O	5.689337	5.689337	3.792891
O	5.689337	3.792891	5.689337
O	3.792891	5.689337	5.689337
Re	3.792891	3.792891	3.792891
Zn	5.689337	5.689337	5.689337
