40

O	0.000000	1.948351	1.948351
O	1.948351	0.000000	1.948351
O	1.948351	1.948351	0.000000
Sn	0.000000	0.000000	0.000000
V	1.948351	1.948351	1.948351
O	0.000000	1.948351	5.845053
O	1.948351	0.000000	5.845053
O	1.948351	1.948351	3.896702
Sn	0.000000	0.000000	3.896702
V	1.948351	1.948351	5.845053
O	0.000000	5.845053	1.948351
O	1.948351	3.896702	1.948351
O	1.948351	5.845053	0.000000
Sn	0.000000	3.896702	0.000000
V	1.948351	5.845053	1.948351
O	0.000000	5.845053	5.845053
O	1.948351	3.896702	5.845053
O	1.948351	5.845053	3.896702
Sn	0.000000	3.896702	3.896702
V	1.948351	5.845053	5.845053
O	3.896702	1.948351	1.948351
O	5.845053	0.000000	1.948351
O	5.845053	1.948351	0.000000
Sn	3.896702	0.000000	0.000000
V	5.845053	1.948351	1.948351
O	3.896702	1.948351	5.845053
O	5.845053	0.000000	5.845053
O	5.845053	1.948351	3.896702
Sn	3.896702	0.000000	3.896702
V	5.845053	1.948351	5.845053
O	3.896702	5.845053	1.948351
O	5.845053	3.896702	1.948351
O	5.845053	5.845053	0.000000
Sn	3.896702	3.896702	0.000000
V	5.845053	5.845053	1.948351
O	3.896702	5.845053	5.845053
O	5.845053	3.896702	5.845053
O	5.845053	5.845053	3.896702
Sn	3.896702	3.896702	3.896702
V	5.845053	5.845053	5.845053
