40

Ag	1.980220	1.980220	1.980220
Cu	0.000000	0.000000	0.000000
O	1.980220	0.000000	1.980220
O	0.000000	1.980220	1.980220
O	1.980220	1.980220	0.000000
Ag	1.980220	1.980220	5.940666
Cu	0.000000	0.000000	3.960446
O	1.980220	0.000000	5.940666
O	0.000000	1.980220	5.940666
O	1.980220	1.980220	3.960446
Ag	1.980220	5.940666	1.980220
Cu	0.000000	3.960446	0.000000
O	1.980220	3.960446	1.980220
O	0.000000	5.940666	1.980220
O	1.980220	5.940666	0.000000
Ag	1.980220	5.940666	5.940666
Cu	0.000000	3.960446	3.960446
O	1.980220	3.960446	5.940666
O	0.000000	5.940666	5.940666
O	1.980220	5.940666	3.960446
Ag	5.940666	1.980220	1.980220
Cu	3.960446	0.000000	0.000000
O	5.940666	0.000000	1.980220
O	3.960446	1.980220	1.980220
O	5.940666	1.980220	0.000000
Ag	5.940666	1.980220	5.940666
Cu	3.960446	0.000000	3.960446
O	5.940666	0.000000	5.940666
O	3.960446	1.980220	5.940666
O	5.940666	1.980220	3.960446
Ag	5.940666	5.940666	1.980220
Cu	3.960446	3.960446	0.000000
O	5.940666	3.960446	1.980220
O	3.960446	5.940666	1.980220
O	5.940666	5.940666	0.000000
Ag	5.940666	5.940666	5.940666
Cu	3.960446	3.960446	3.960446
O	5.940666	3.960446	5.940666
O	3.960446	5.940666	5.940666
O	5.940666	5.940666	3.960446
