40

Ag	2.012857	2.012857	2.012857
Cu	0.000000	0.000000	0.000000
O	0.000000	2.012857	2.012857
O	2.012857	0.000000	2.012857
O	2.012857	2.012857	0.000000
Ag	2.012857	2.012857	6.038570
Cu	0.000000	0.000000	4.025713
O	0.000000	2.012857	6.038570
O	2.012857	0.000000	6.038570
O	2.012857	2.012857	4.025713
Ag	2.012857	6.038570	2.012857
Cu	0.000000	4.025713	0.000000
O	0.000000	6.038570	2.012857
O	2.012857	4.025713	2.012857
O	2.012857	6.038570	0.000000
Ag	2.012857	6.038570	6.038570
Cu	0.000000	4.025713	4.025713
O	0.000000	6.038570	6.038570
O	2.012857	4.025713	6.038570
O	2.012857	6.038570	4.025713
Ag	6.038570	2.012857	2.012857
Cu	4.025713	0.000000	0.000000
O	4.025713	2.012857	2.012857
O	6.038570	0.000000	2.012857
O	6.038570	2.012857	0.000000
Ag	6.038570	2.012857	6.038570
Cu	4.025713	0.000000	4.025713
O	4.025713	2.012857	6.038570
O	6.038570	0.000000	6.038570
O	6.038570	2.012857	4.025713
Ag	6.038570	6.038570	2.012857
Cu	4.025713	4.025713	0.000000
O	4.025713	6.038570	2.012857
O	6.038570	4.025713	2.012857
O	6.038570	6.038570	0.000000
Ag	6.038570	6.038570	6.038570
Cu	4.025713	4.025713	4.025713
O	4.025713	6.038570	6.038570
O	6.038570	4.025713	6.038570
O	6.038570	6.038570	4.025713
