40

Cu	0.000000	0.000000	0.000000
O	0.000000	1.987531	1.987531
O	1.987531	0.000000	1.987531
O	1.987531	1.987531	0.000000
Ta	1.987531	1.987531	1.987531
Cu	0.000000	0.000000	3.975062
O	0.000000	1.987531	5.962593
O	1.987531	0.000000	5.962593
O	1.987531	1.987531	3.975062
Ta	1.987531	1.987531	5.962593
Cu	0.000000	3.975062	0.000000
O	0.000000	5.962593	1.987531
O	1.987531	3.975062	1.987531
O	1.987531	5.962593	0.000000
Ta	1.987531	5.962593	1.987531
Cu	0.000000	3.975062	3.975062
O	0.000000	5.962593	5.962593
O	1.987531	3.975062	5.962593
O	1.987531	5.962593	3.975062
Ta	1.987531	5.962593	5.962593
Cu	3.975062	0.000000	0.000000
O	3.975062	1.987531	1.987531
O	5.962593	0.000000	1.987531
O	5.962593	1.987531	0.000000
Ta	5.962593	1.987531	1.987531
Cu	3.975062	0.000000	3.975062
O	3.975062	1.987531	5.962593
O	5.962593	0.000000	5.962593
O	5.962593	1.987531	3.975062
Ta	5.962593	1.987531	5.962593
Cu	3.975062	3.975062	0.000000
O	3.975062	5.962593	1.987531
O	5.962593	3.975062	1.987531
O	5.962593	5.962593	0.000000
Ta	5.962593	5.962593	1.987531
Cu	3.975062	3.975062	3.975062
O	3.975062	5.962593	5.962593
O	5.962593	3.975062	5.962593
O	5.962593	5.962593	3.975062
Ta	5.962593	5.962593	5.962593
