40

Ir	1.950262	1.950262	1.950262
Na	0.000000	0.000000	0.000000
O	0.000000	1.950262	1.950262
O	1.950262	0.000000	1.950262
O	1.950262	1.950262	0.000000
Ir	1.950262	1.950262	5.850785
Na	0.000000	0.000000	3.900523
O	0.000000	1.950262	5.850785
O	1.950262	0.000000	5.850785
O	1.950262	1.950262	3.900523
Ir	1.950262	5.850785	1.950262
Na	0.000000	3.900523	0.000000
O	0.000000	5.850785	1.950262
O	1.950262	3.900523	1.950262
O	1.950262	5.850785	0.000000
Ir	1.950262	5.850785	5.850785
Na	0.000000	3.900523	3.900523
O	0.000000	5.850785	5.850785
O	1.950262	3.900523	5.850785
O	1.950262	5.850785	3.900523
Ir	5.850785	1.950262	1.950262
Na	3.900523	0.000000	0.000000
O	3.900523	1.950262	1.950262
O	5.850785	0.000000	1.950262
O	5.850785	1.950262	0.000000
Ir	5.850785	1.950262	5.850785
Na	3.900523	0.000000	3.900523
O	3.900523	1.950262	5.850785
O	5.850785	0.000000	5.850785
O	5.850785	1.950262	3.900523
Ir	5.850785	5.850785	1.950262
Na	3.900523	3.900523	0.000000
O	3.900523	5.850785	1.950262
O	5.850785	3.900523	1.950262
O	5.850785	5.850785	0.000000
Ir	5.850785	5.850785	5.850785
Na	3.900523	3.900523	3.900523
O	3.900523	5.850785	5.850785
O	5.850785	3.900523	5.850785
O	5.850785	5.850785	3.900523
