40

Eu	2.490283	2.490283	0.000000
Eu	2.490283	0.000000	2.490283
Eu	0.000000	2.490283	2.490283
In	0.000000	0.000000	0.000000
O	2.490283	2.490283	2.490283
Eu	2.490283	2.490283	4.980566
Eu	2.490283	0.000000	7.470849
Eu	0.000000	2.490283	7.470849
In	0.000000	0.000000	4.980566
O	2.490283	2.490283	7.470849
Eu	2.490283	7.470849	0.000000
Eu	2.490283	4.980566	2.490283
Eu	0.000000	7.470849	2.490283
In	0.000000	4.980566	0.000000
O	2.490283	7.470849	2.490283
Eu	2.490283	7.470849	4.980566
Eu	2.490283	4.980566	7.470849
Eu	0.000000	7.470849	7.470849
In	0.000000	4.980566	4.980566
O	2.490283	7.470849	7.470849
Eu	7.470849	2.490283	0.000000
Eu	7.470849	0.000000	2.490283
Eu	4.980566	2.490283	2.490283
In	4.980566	0.000000	0.000000
O	7.470849	2.490283	2.490283
Eu	7.470849	2.490283	4.980566
Eu	7.470849	0.000000	7.470849
Eu	4.980566	2.490283	7.470849
In	4.980566	0.000000	4.980566
O	7.470849	2.490283	7.470849
Eu	7.470849	7.470849	0.000000
Eu	7.470849	4.980566	2.490283
Eu	4.980566	7.470849	2.490283
In	4.980566	4.980566	0.000000
O	7.470849	7.470849	2.490283
Eu	7.470849	7.470849	4.980566
Eu	7.470849	4.980566	7.470849
Eu	4.980566	7.470849	7.470849
In	4.980566	4.980566	4.980566
O	7.470849	7.470849	7.470849
