112

Er	0.000000	0.000000	0.000000
Er	2.245620	-2.246688	-2.246688
O	3.478419	-1.012759	-1.012759
O	-1.012821	1.012759	-3.480617
O	1.012821	-1.012759	-3.480617
O	1.232799	1.233929	-1.233929
O	5.504061	1.012759	-1.012759
O	1.232799	3.259447	-3.259447
O	3.258441	3.259447	-1.233929
O	3.258441	1.233929	-3.259447
Re	-1.122810	-1.123344	-3.370032
Re	3.368430	1.123344	-1.123344
Re	5.614050	-1.123344	-1.123344
Re	1.122810	1.123344	-3.370032
Er	4.491240	4.493376	0.000000
Er	6.736860	2.246688	-2.246688
O	7.969660	3.480617	-1.012759
O	3.478419	5.506135	-3.480617
O	5.504061	3.480617	-3.480617
O	5.724039	5.727305	-1.233929
O	9.995301	5.506135	-1.012759
O	5.724040	7.752823	-3.259447
O	7.749681	7.752823	-1.233929
O	7.749681	5.727305	-3.259447
Re	3.368430	3.370032	-3.370032
Re	7.859670	5.616720	-1.123344
Re	10.105290	3.370032	-1.123344
Re	5.614050	5.616720	-3.370032
Er	-4.491240	0.000000	-4.493376
Er	-2.245620	-2.246688	-6.740064
O	-1.012821	-1.012759	-5.506135
O	-5.504061	1.012759	-7.973993
O	-3.478419	-1.012759	-7.973993
O	-3.258441	1.233929	-5.727305
O	1.012821	1.012759	-5.506135
O	-3.258441	3.259447	-7.752823
O	-1.232799	3.259447	-5.727305
O	-1.232799	1.233929	-7.752823
Re	-5.614050	-1.123344	-7.863408
Re	-1.122810	1.123344	-5.616720
Re	1.122810	-1.123344	-5.616720
Re	-3.368430	1.123344	-7.863408
Er	0.000000	4.493376	-4.493376
Er	2.245620	2.246688	-6.740064
O	3.478419	3.480617	-5.506135
O	-1.012821	5.506135	-7.973993
O	1.012821	3.480617	-7.973993
O	1.232799	5.727305	-5.727305
O	5.504061	5.506135	-5.506135
O	1.232799	7.752823	-7.752823
O	3.258441	7.752823	-5.727305
O	3.258441	5.727305	-7.752823
Re	-1.122810	3.370032	-7.863408
Re	3.368430	5.616720	-5.616720
Re	5.614050	3.370032	-5.616720
Re	1.122810	5.616720	-7.863408
Er	4.491240	-4.493376	0.000000
Er	6.736860	-6.740064	-2.246688
O	7.969660	-5.506135	-1.012759
O	3.478419	-3.480617	-3.480617
O	5.504061	-5.506135	-3.480617
O	5.724039	-3.259447	-1.233929
O	9.995301	-3.480617	-1.012759
O	5.724040	-1.233929	-3.259447
O	7.749681	-1.233929	-1.233929
O	7.749681	-3.259447	-3.259447
Re	3.368430	-5.616720	-3.370032
Re	7.859670	-3.370032	-1.123344
Re	10.105290	-5.616720	-1.123344
Re	5.614050	-3.370032	-3.370032
Er	8.982480	0.000000	0.000000
Er	11.228100	-2.246688	-2.246688
O	12.460900	-1.012759	-1.012759
O	7.969660	1.012759	-3.480617
O	9.995301	-1.012759	-3.480617
O	10.215280	1.233929	-1.233929
O	14.486541	1.012759	-1.012759
O	10.215280	3.259447	-3.259447
O	12.240921	3.259447	-1.233929
O	12.240921	1.233929	-3.259447
Re	7.859670	-1.123344	-3.370032
Re	12.350910	1.123344	-1.123344
Re	14.596530	-1.123344	-1.123344
Re	10.105290	1.123344	-3.370032
Er	0.000000	-4.493376	-4.493376
Er	2.245620	-6.740064	-6.740064
O	3.478419	-5.506135	-5.506135
O	-1.012821	-3.480617	-7.973993
O	1.012821	-5.506135	-7.973993
O	1.232799	-3.259447	-5.727305
O	5.504061	-3.480617	-5.506135
O	1.232799	-1.233929	-7.752823
O	3.258441	-1.233929	-5.727305
O	3.258441	-3.259447	-7.752823
Re	-1.122810	-5.616720	-7.863408
Re	3.368430	-3.370032	-5.616720
Re	5.614050	-5.616720	-5.616720
Re	1.122810	-3.370032	-7.863408
Er	4.491240	0.000000	-4.493376
Er	6.736860	-2.246688	-6.740064
O	7.969660	-1.012759	-5.506135
O	3.478419	1.012759	-7.973993
O	5.504061	-1.012759	-7.973993
O	5.724039	1.233929	-5.727305
O	9.995301	1.012759	-5.506135
O	5.724040	3.259447	-7.752823
O	7.749681	3.259447	-5.727305
O	7.749681	1.233929	-7.752823
Re	3.368430	-1.123344	-7.863408
Re	7.859670	1.123344	-5.616720
Re	10.105290	-1.123344	-5.616720
Re	5.614050	1.123344	-7.863408
