112

Dy	0.000000	0.000000	0.000000
Dy	2.241531	-2.242294	-2.242294
Mo	-1.120765	-1.121142	-3.363435
Mo	3.362296	1.121142	-1.121142
Mo	1.120765	1.121142	-3.363435
Mo	5.603827	-1.121142	-1.121142
O	3.444352	-1.038437	-1.038437
O	-1.038710	1.038437	-3.446150
O	1.038710	-1.038437	-3.446150
O	1.202821	1.203856	-1.203856
O	5.521771	1.038437	-1.038437
O	1.202821	3.280731	-3.280731
O	3.280240	3.280731	-1.203856
O	3.280240	1.203856	-3.280731
Dy	4.483062	4.484586	0.000000
Dy	6.724593	2.242292	-2.242294
Mo	3.362297	3.363444	-3.363435
Mo	7.845358	5.605728	-1.121142
Mo	5.603828	5.605728	-3.363435
Mo	10.086889	3.363444	-1.121142
O	7.927414	3.446148	-1.038437
O	3.444353	5.523023	-3.446150
O	5.521772	3.446148	-3.446150
O	5.685883	5.688442	-1.203856
O	10.004833	5.523023	-1.038437
O	5.685883	7.765317	-3.280731
O	7.763303	7.765317	-1.203856
O	7.763303	5.688442	-3.280731
Dy	-4.483062	0.000000	-4.484586
Dy	-2.241531	-2.242294	-6.726879
Mo	-5.603828	-1.121142	-7.848021
Mo	-1.120766	1.121142	-5.605728
Mo	-3.362297	1.121142	-7.848021
Mo	1.120765	-1.121142	-5.605728
O	-1.038710	-1.038437	-5.523023
O	-5.521772	1.038437	-7.930736
O	-3.444353	-1.038437	-7.930736
O	-3.280241	1.203856	-5.688442
O	1.038709	1.038437	-5.523023
O	-3.280241	3.280731	-7.765317
O	-1.202822	3.280731	-5.688442
O	-1.202822	1.203856	-7.765317
Dy	0.000000	4.484586	-4.484586
Dy	2.241531	2.242292	-6.726879
Mo	-1.120765	3.363444	-7.848021
Mo	3.362296	5.605728	-5.605728
Mo	1.120765	5.605728	-7.848021
Mo	5.603827	3.363444	-5.605728
O	3.444352	3.446148	-5.523023
O	-1.038710	5.523023	-7.930736
O	1.038710	3.446148	-7.930736
O	1.202821	5.688442	-5.688442
O	5.521771	5.523023	-5.523023
O	1.202821	7.765317	-7.765317
O	3.280240	7.765317	-5.688442
O	3.280240	5.688442	-7.765317
Dy	4.483062	-4.484586	0.000000
Dy	6.724593	-6.726879	-2.242294
Mo	3.362297	-5.605728	-3.363435
Mo	7.845358	-3.363444	-1.121142
Mo	5.603828	-3.363444	-3.363435
Mo	10.086889	-5.605728	-1.121142
O	7.927414	-5.523023	-1.038437
O	3.444353	-3.446148	-3.446150
O	5.521772	-5.523023	-3.446150
O	5.685883	-3.280729	-1.203856
O	10.004833	-3.446148	-1.038437
O	5.685883	-1.203855	-3.280731
O	7.763303	-1.203855	-1.203856
O	7.763303	-3.280729	-3.280731
Dy	8.966124	0.000000	0.000000
Dy	11.207655	-2.242294	-2.242294
Mo	7.845359	-1.121142	-3.363435
Mo	12.328421	1.121142	-1.121142
Mo	10.086890	1.121142	-3.363435
Mo	14.569951	-1.121142	-1.121142
O	12.410477	-1.038437	-1.038437
O	7.927415	1.038437	-3.446150
O	10.004834	-1.038437	-3.446150
O	10.168946	1.203856	-1.203856
O	14.487896	1.038437	-1.038437
O	10.168946	3.280731	-3.280731
O	12.246365	3.280731	-1.203856
O	12.246365	1.203856	-3.280731
Dy	0.000000	-4.484586	-4.484586
Dy	2.241531	-6.726879	-6.726879
Mo	-1.120765	-5.605728	-7.848021
Mo	3.362296	-3.363444	-5.605728
Mo	1.120765	-3.363444	-7.848021
Mo	5.603827	-5.605728	-5.605728
O	3.444352	-5.523023	-5.523023
O	-1.038710	-3.446148	-7.930736
O	1.038710	-5.523023	-7.930736
O	1.202821	-3.280729	-5.688442
O	5.521771	-3.446148	-5.523023
O	1.202821	-1.203855	-7.765317
O	3.280240	-1.203855	-5.688442
O	3.280240	-3.280729	-7.765317
Dy	4.483062	0.000000	-4.484586
Dy	6.724593	-2.242294	-6.726879
Mo	3.362297	-1.121142	-7.848021
Mo	7.845358	1.121142	-5.605728
Mo	5.603828	1.121142	-7.848021
Mo	10.086889	-1.121142	-5.605728
O	7.927414	-1.038437	-5.523023
O	3.444353	1.038437	-7.930736
O	5.521772	-1.038437	-7.930736
O	5.685883	1.203856	-5.688442
O	10.004833	1.038437	-5.523023
O	5.685883	3.280731	-7.765317
O	7.763303	3.280731	-5.688442
O	7.763303	1.203856	-7.765317
