40

O	0.000000	1.918598	1.918598
O	1.918598	0.000000	1.918598
O	1.918598	1.918598	0.000000
S	1.918598	1.918598	1.918598
Tc	0.000000	0.000000	0.000000
O	0.000000	1.918598	5.755793
O	1.918598	0.000000	5.755793
O	1.918598	1.918598	3.837196
S	1.918598	1.918598	5.755793
Tc	0.000000	0.000000	3.837196
O	0.000000	5.755793	1.918598
O	1.918598	3.837196	1.918598
O	1.918598	5.755793	0.000000
S	1.918598	5.755793	1.918598
Tc	0.000000	3.837196	0.000000
O	0.000000	5.755793	5.755793
O	1.918598	3.837196	5.755793
O	1.918598	5.755793	3.837196
S	1.918598	5.755793	5.755793
Tc	0.000000	3.837196	3.837196
O	3.837196	1.918598	1.918598
O	5.755793	0.000000	1.918598
O	5.755793	1.918598	0.000000
S	5.755793	1.918598	1.918598
Tc	3.837196	0.000000	0.000000
O	3.837196	1.918598	5.755793
O	5.755793	0.000000	5.755793
O	5.755793	1.918598	3.837196
S	5.755793	1.918598	5.755793
Tc	3.837196	0.000000	3.837196
O	3.837196	5.755793	1.918598
O	5.755793	3.837196	1.918598
O	5.755793	5.755793	0.000000
S	5.755793	5.755793	1.918598
Tc	3.837196	3.837196	0.000000
O	3.837196	5.755793	5.755793
O	5.755793	3.837196	5.755793
O	5.755793	5.755793	3.837196
S	5.755793	5.755793	5.755793
Tc	3.837196	3.837196	3.837196
