40

O	0.000000	1.953601	1.953601
O	1.953601	0.000000	1.953601
O	1.953601	1.953601	0.000000
S	0.000000	0.000000	0.000000
Tc	1.953601	1.953601	1.953601
O	0.000000	1.953601	5.860803
O	1.953601	0.000000	5.860803
O	1.953601	1.953601	3.907202
S	0.000000	0.000000	3.907202
Tc	1.953601	1.953601	5.860803
O	0.000000	5.860803	1.953601
O	1.953601	3.907202	1.953601
O	1.953601	5.860803	0.000000
S	0.000000	3.907202	0.000000
Tc	1.953601	5.860803	1.953601
O	0.000000	5.860803	5.860803
O	1.953601	3.907202	5.860803
O	1.953601	5.860803	3.907202
S	0.000000	3.907202	3.907202
Tc	1.953601	5.860803	5.860803
O	3.907202	1.953601	1.953601
O	5.860803	0.000000	1.953601
O	5.860803	1.953601	0.000000
S	3.907202	0.000000	0.000000
Tc	5.860803	1.953601	1.953601
O	3.907202	1.953601	5.860803
O	5.860803	0.000000	5.860803
O	5.860803	1.953601	3.907202
S	3.907202	0.000000	3.907202
Tc	5.860803	1.953601	5.860803
O	3.907202	5.860803	1.953601
O	5.860803	3.907202	1.953601
O	5.860803	5.860803	0.000000
S	3.907202	3.907202	0.000000
Tc	5.860803	5.860803	1.953601
O	3.907202	5.860803	5.860803
O	5.860803	3.907202	5.860803
O	5.860803	5.860803	3.907202
S	3.907202	3.907202	3.907202
Tc	5.860803	5.860803	5.860803
