40

Ba	2.323980	2.323980	2.323980
O	2.323980	2.323980	0.000000
O	0.000000	2.323980	2.323980
O	2.323980	0.000000	2.323980
Sm	0.000000	0.000000	0.000000
Ba	2.323980	2.323980	6.971946
O	2.323980	2.323980	4.647966
O	0.000000	2.323980	6.971946
O	2.323980	0.000000	6.971946
Sm	0.000000	0.000000	4.647966
Ba	2.323980	6.971946	2.323980
O	2.323980	6.971946	0.000000
O	0.000000	6.971946	2.323980
O	2.323980	4.647966	2.323980
Sm	0.000000	4.647966	0.000000
Ba	2.323980	6.971946	6.971946
O	2.323980	6.971946	4.647966
O	0.000000	6.971946	6.971946
O	2.323980	4.647966	6.971946
Sm	0.000000	4.647966	4.647966
Ba	6.971946	2.323980	2.323980
O	6.971946	2.323980	0.000000
O	4.647966	2.323980	2.323980
O	6.971946	0.000000	2.323980
Sm	4.647966	0.000000	0.000000
Ba	6.971946	2.323980	6.971946
O	6.971946	2.323980	4.647966
O	4.647966	2.323980	6.971946
O	6.971946	0.000000	6.971946
Sm	4.647966	0.000000	4.647966
Ba	6.971946	6.971946	2.323980
O	6.971946	6.971946	0.000000
O	4.647966	6.971946	2.323980
O	6.971946	4.647966	2.323980
Sm	4.647966	4.647966	0.000000
Ba	6.971946	6.971946	6.971946
O	6.971946	6.971946	4.647966
O	4.647966	6.971946	6.971946
O	6.971946	4.647966	6.971946
Sm	4.647966	4.647966	4.647966
