40

Lu	0.000000	0.000000	0.000000
O	2.059990	2.059990	0.000000
O	0.000000	2.059990	2.059990
O	2.059990	0.000000	2.059990
Zr	2.059990	2.059990	2.059990
Lu	0.000000	0.000000	4.119965
O	2.059990	2.059990	4.119965
O	0.000000	2.059990	6.179955
O	2.059990	0.000000	6.179955
Zr	2.059990	2.059990	6.179955
Lu	0.000000	4.119965	0.000000
O	2.059990	6.179955	0.000000
O	0.000000	6.179955	2.059990
O	2.059990	4.119965	2.059990
Zr	2.059990	6.179955	2.059990
Lu	0.000000	4.119965	4.119965
O	2.059990	6.179955	4.119965
O	0.000000	6.179955	6.179955
O	2.059990	4.119965	6.179955
Zr	2.059990	6.179955	6.179955
Lu	4.119965	0.000000	0.000000
O	6.179955	2.059990	0.000000
O	4.119965	2.059990	2.059990
O	6.179955	0.000000	2.059990
Zr	6.179955	2.059990	2.059990
Lu	4.119965	0.000000	4.119965
O	6.179955	2.059990	4.119965
O	4.119965	2.059990	6.179955
O	6.179955	0.000000	6.179955
Zr	6.179955	2.059990	6.179955
Lu	4.119965	4.119965	0.000000
O	6.179955	6.179955	0.000000
O	4.119965	6.179955	2.059990
O	6.179955	4.119965	2.059990
Zr	6.179955	6.179955	2.059990
Lu	4.119965	4.119965	4.119965
O	6.179955	6.179955	4.119965
O	4.119965	6.179955	6.179955
O	6.179955	4.119965	6.179955
Zr	6.179955	6.179955	6.179955
