40

Be	1.938669	1.938669	1.938669
O	0.000000	1.938669	1.938669
O	1.938669	0.000000	1.938669
O	1.938669	1.938669	0.000000
Rb	0.000000	0.000000	0.000000
Be	1.938669	1.938669	5.816006
O	0.000000	1.938669	5.816006
O	1.938669	0.000000	5.816006
O	1.938669	1.938669	3.877337
Rb	0.000000	0.000000	3.877337
Be	1.938669	5.816006	1.938669
O	0.000000	5.816006	1.938669
O	1.938669	3.877337	1.938669
O	1.938669	5.816006	0.000000
Rb	0.000000	3.877337	0.000000
Be	1.938669	5.816006	5.816006
O	0.000000	5.816006	5.816006
O	1.938669	3.877337	5.816006
O	1.938669	5.816006	3.877337
Rb	0.000000	3.877337	3.877337
Be	5.816006	1.938669	1.938669
O	3.877337	1.938669	1.938669
O	5.816006	0.000000	1.938669
O	5.816006	1.938669	0.000000
Rb	3.877337	0.000000	0.000000
Be	5.816006	1.938669	5.816006
O	3.877337	1.938669	5.816006
O	5.816006	0.000000	5.816006
O	5.816006	1.938669	3.877337
Rb	3.877337	0.000000	3.877337
Be	5.816006	5.816006	1.938669
O	3.877337	5.816006	1.938669
O	5.816006	3.877337	1.938669
O	5.816006	5.816006	0.000000
Rb	3.877337	3.877337	0.000000
Be	5.816006	5.816006	5.816006
O	3.877337	5.816006	5.816006
O	5.816006	3.877337	5.816006
O	5.816006	5.816006	3.877337
Rb	3.877337	3.877337	3.877337
