112

Hf	0.000000	0.000000	0.000000
Hf	2.164555	-2.164715	-2.164715
Mg	-1.082278	-1.082358	-3.247073
Mg	3.246833	1.082358	-1.082358
Mg	5.411388	-1.082358	-1.082358
Mg	1.082278	1.082358	-3.247073
O	3.302828	-1.025806	-1.025806
O	-1.026282	1.025806	-3.303625
O	1.026282	-1.025806	-3.303625
O	1.138273	1.138910	-1.138910
O	5.355392	1.025806	-1.025806
O	1.138273	3.190521	-3.190521
O	3.190837	3.190521	-1.138910
O	3.190837	1.138910	-3.190521
Hf	4.329110	4.329431	0.000000
Hf	6.493665	2.164715	-2.164715
Mg	3.246833	3.247073	-3.247073
Mg	7.575943	5.411789	-1.082358
Mg	9.740498	3.247073	-1.082358
Mg	5.411388	5.411789	-3.247073
O	7.631938	3.303625	-1.025806
O	3.302828	5.355237	-3.303625
O	5.355392	3.303625	-3.303625
O	5.467383	5.468341	-1.138910
O	9.684502	5.355237	-1.025806
O	5.467383	7.519952	-3.190521
O	7.519947	7.519952	-1.138910
O	7.519947	5.468341	-3.190521
Hf	-4.329110	0.000000	-4.329431
Hf	-2.164555	-2.164715	-6.494146
Mg	-5.411388	-1.082358	-7.576504
Mg	-1.082278	1.082358	-5.411789
Mg	1.082278	-1.082358	-5.411789
Mg	-3.246833	1.082358	-7.576504
O	-1.026282	-1.025806	-5.355237
O	-5.355392	1.025806	-7.633056
O	-3.302828	-1.025806	-7.633056
O	-3.190837	1.138910	-5.468341
O	1.026282	1.025806	-5.355237
O	-3.190837	3.190521	-7.519952
O	-1.138273	3.190521	-5.468341
O	-1.138273	1.138910	-7.519952
Hf	0.000000	4.329431	-4.329431
Hf	2.164555	2.164715	-6.494146
Mg	-1.082278	3.247073	-7.576504
Mg	3.246833	5.411789	-5.411789
Mg	5.411388	3.247073	-5.411789
Mg	1.082278	5.411789	-7.576504
O	3.302828	3.303625	-5.355237
O	-1.026282	5.355237	-7.633056
O	1.026282	3.303625	-7.633056
O	1.138273	5.468341	-5.468341
O	5.355392	5.355237	-5.355237
O	1.138273	7.519952	-7.519952
O	3.190837	7.519952	-5.468341
O	3.190837	5.468341	-7.519952
Hf	4.329110	-4.329431	0.000000
Hf	6.493665	-6.494146	-2.164715
Mg	3.246833	-5.411789	-3.247073
Mg	7.575943	-3.247073	-1.082358
Mg	9.740498	-5.411789	-1.082358
Mg	5.411388	-3.247073	-3.247073
O	7.631938	-5.355237	-1.025806
O	3.302828	-3.303625	-3.303625
O	5.355392	-5.355237	-3.303625
O	5.467383	-3.190521	-1.138910
O	9.684502	-3.303625	-1.025806
O	5.467383	-1.138910	-3.190521
O	7.519947	-1.138910	-1.138910
O	7.519947	-3.190521	-3.190521
Hf	8.658220	0.000000	0.000000
Hf	10.822775	-2.164715	-2.164715
Mg	7.575943	-1.082358	-3.247073
Mg	11.905053	1.082358	-1.082358
Mg	14.069608	-1.082358	-1.082358
Mg	9.740498	1.082358	-3.247073
O	11.961048	-1.025806	-1.025806
O	7.631938	1.025806	-3.303625
O	9.684502	-1.025806	-3.303625
O	9.796493	1.138910	-1.138910
O	14.013612	1.025806	-1.025806
O	9.796493	3.190521	-3.190521
O	11.849057	3.190521	-1.138910
O	11.849057	1.138910	-3.190521
Hf	0.000000	-4.329431	-4.329431
Hf	2.164555	-6.494146	-6.494146
Mg	-1.082278	-5.411789	-7.576504
Mg	3.246833	-3.247073	-5.411789
Mg	5.411388	-5.411789	-5.411789
Mg	1.082278	-3.247073	-7.576504
O	3.302828	-5.355237	-5.355237
O	-1.026282	-3.303625	-7.633056
O	1.026282	-5.355237	-7.633056
O	1.138273	-3.190521	-5.468341
O	5.355392	-3.303625	-5.355237
O	1.138273	-1.138910	-7.519952
O	3.190837	-1.138910	-5.468341
O	3.190837	-3.190521	-7.519952
Hf	4.329110	0.000000	-4.329431
Hf	6.493665	-2.164715	-6.494146
Mg	3.246833	-1.082358	-7.576504
Mg	7.575943	1.082358	-5.411789
Mg	9.740498	-1.082358	-5.411789
Mg	5.411388	1.082358	-7.576504
O	7.631938	-1.025806	-5.355237
O	3.302828	1.025806	-7.633056
O	5.355392	-1.025806	-7.633056
O	5.467383	1.138910	-5.468341
O	9.684502	1.025806	-5.355237
O	5.467383	3.190521	-7.519952
O	7.519947	3.190521	-5.468341
O	7.519947	1.138910	-7.519952
