40

Ca	1.773628	1.773628	1.773628
O	1.773628	0.000000	0.000000
O	0.000000	1.773628	0.000000
O	0.000000	0.000000	1.773628
Si	0.000000	0.000000	0.000000
Ca	1.773628	1.773628	5.320883
O	1.773628	0.000000	3.547256
O	0.000000	1.773628	3.547256
O	0.000000	0.000000	5.320883
Si	0.000000	0.000000	3.547256
Ca	1.773628	5.320883	1.773628
O	1.773628	3.547256	0.000000
O	0.000000	5.320883	0.000000
O	0.000000	3.547256	1.773628
Si	0.000000	3.547256	0.000000
Ca	1.773628	5.320883	5.320883
O	1.773628	3.547256	3.547256
O	0.000000	5.320883	3.547256
O	0.000000	3.547256	5.320883
Si	0.000000	3.547256	3.547256
Ca	5.320883	1.773628	1.773628
O	5.320883	0.000000	0.000000
O	3.547256	1.773628	0.000000
O	3.547256	0.000000	1.773628
Si	3.547256	0.000000	0.000000
Ca	5.320883	1.773628	5.320883
O	5.320883	0.000000	3.547256
O	3.547256	1.773628	3.547256
O	3.547256	0.000000	5.320883
Si	3.547256	0.000000	3.547256
Ca	5.320883	5.320883	1.773628
O	5.320883	3.547256	0.000000
O	3.547256	5.320883	0.000000
O	3.547256	3.547256	1.773628
Si	3.547256	3.547256	0.000000
Ca	5.320883	5.320883	5.320883
O	5.320883	3.547256	3.547256
O	3.547256	5.320883	3.547256
O	3.547256	3.547256	5.320883
Si	3.547256	3.547256	3.547256
