40

Ca	1.784694	1.784694	1.784694
O	1.784694	0.000000	0.000000
O	0.000000	1.784694	0.000000
O	0.000000	0.000000	1.784694
Si	-0.015000	0.000000	0.000000
Ca	1.784694	1.784694	5.354083
O	1.784694	0.000000	3.569389
O	0.000000	1.784694	3.569389
O	0.000000	0.000000	5.354083
Si	-0.015000	0.000000	3.569389
Ca	1.784694	5.354083	1.784694
O	1.784694	3.569389	0.000000
O	0.000000	5.354083	0.000000
O	0.000000	3.569389	1.784694
Si	-0.015000	3.569389	0.000000
Ca	1.784694	5.354083	5.354083
O	1.784694	3.569389	3.569389
O	0.000000	5.354083	3.569389
O	0.000000	3.569389	5.354083
Si	-0.015000	3.569389	3.569389
Ca	5.354083	1.784694	1.784694
O	5.354083	0.000000	0.000000
O	3.569389	1.784694	0.000000
O	3.569389	0.000000	1.784694
Si	3.554389	0.000000	0.000000
Ca	5.354083	1.784694	5.354083
O	5.354083	0.000000	3.569389
O	3.569389	1.784694	3.569389
O	3.569389	0.000000	5.354083
Si	3.554389	0.000000	3.569389
Ca	5.354083	5.354083	1.784694
O	5.354083	3.569389	0.000000
O	3.569389	5.354083	0.000000
O	3.569389	3.569389	1.784694
Si	3.554389	3.569389	0.000000
Ca	5.354083	5.354083	5.354083
O	5.354083	3.569389	3.569389
O	3.569389	5.354083	3.569389
O	3.569389	3.569389	5.354083
Si	3.554389	3.569389	3.569389
