40

Ca	1.783640	1.783640	1.783640
O	1.783640	0.000000	0.000000
O	0.000000	1.783640	0.000000
O	0.000000	0.000000	1.783640
Si	-0.015000	0.000000	0.000000
Ca	1.783640	1.783640	5.350919
O	1.783640	0.000000	3.567279
O	0.000000	1.783640	3.567279
O	0.000000	0.000000	5.350919
Si	-0.015000	0.000000	3.567279
Ca	1.783640	5.350919	1.783640
O	1.783640	3.567279	0.000000
O	0.000000	5.350919	0.000000
O	0.000000	3.567279	1.783640
Si	-0.015000	3.567279	0.000000
Ca	1.783640	5.350919	5.350919
O	1.783640	3.567279	3.567279
O	0.000000	5.350919	3.567279
O	0.000000	3.567279	5.350919
Si	-0.015000	3.567279	3.567279
Ca	5.350919	1.783640	1.783640
O	5.350919	0.000000	0.000000
O	3.567279	1.783640	0.000000
O	3.567279	0.000000	1.783640
Si	3.552279	0.000000	0.000000
Ca	5.350919	1.783640	5.350919
O	5.350919	0.000000	3.567279
O	3.567279	1.783640	3.567279
O	3.567279	0.000000	5.350919
Si	3.552279	0.000000	3.567279
Ca	5.350919	5.350919	1.783640
O	5.350919	3.567279	0.000000
O	3.567279	5.350919	0.000000
O	3.567279	3.567279	1.783640
Si	3.552279	3.567279	0.000000
Ca	5.350919	5.350919	5.350919
O	5.350919	3.567279	3.567279
O	3.567279	5.350919	3.567279
O	3.567279	3.567279	5.350919
Si	3.552279	3.567279	3.567279
