40

Ba	2.313652	2.313652	2.313652
O	2.313652	2.313652	0.000000
O	0.000000	2.313652	2.313652
O	2.313652	0.000000	2.313652
Tm	0.000000	0.000000	0.000000
Ba	2.313652	2.313652	6.940957
O	2.313652	2.313652	4.627305
O	0.000000	2.313652	6.940957
O	2.313652	0.000000	6.940957
Tm	0.000000	0.000000	4.627305
Ba	2.313652	6.940957	2.313652
O	2.313652	6.940957	0.000000
O	0.000000	6.940957	2.313652
O	2.313652	4.627305	2.313652
Tm	0.000000	4.627305	0.000000
Ba	2.313652	6.940957	6.940957
O	2.313652	6.940957	4.627305
O	0.000000	6.940957	6.940957
O	2.313652	4.627305	6.940957
Tm	0.000000	4.627305	4.627305
Ba	6.940957	2.313652	2.313652
O	6.940957	2.313652	0.000000
O	4.627305	2.313652	2.313652
O	6.940957	0.000000	2.313652
Tm	4.627305	0.000000	0.000000
Ba	6.940957	2.313652	6.940957
O	6.940957	2.313652	4.627305
O	4.627305	2.313652	6.940957
O	6.940957	0.000000	6.940957
Tm	4.627305	0.000000	4.627305
Ba	6.940957	6.940957	2.313652
O	6.940957	6.940957	0.000000
O	4.627305	6.940957	2.313652
O	6.940957	4.627305	2.313652
Tm	4.627305	4.627305	0.000000
Ba	6.940957	6.940957	6.940957
O	6.940957	6.940957	4.627305
O	4.627305	6.940957	6.940957
O	6.940957	4.627305	6.940957
Tm	4.627305	4.627305	4.627305
