40

Li	1.739700	1.739700	1.739700
O	1.739700	1.739700	0.000000
O	0.000000	1.739700	1.739700
O	1.739700	0.000000	1.739700
Si	0.000000	0.000000	0.000000
Li	1.739700	1.739700	5.219113
O	1.739700	1.739700	3.479413
O	0.000000	1.739700	5.219113
O	1.739700	0.000000	5.219113
Si	0.000000	0.000000	3.479413
Li	1.739700	5.219113	1.739700
O	1.739700	5.219113	0.000000
O	0.000000	5.219113	1.739700
O	1.739700	3.479413	1.739700
Si	0.000000	3.479413	0.000000
Li	1.739700	5.219113	5.219113
O	1.739700	5.219113	3.479413
O	0.000000	5.219113	5.219113
O	1.739700	3.479413	5.219113
Si	0.000000	3.479413	3.479413
Li	5.219113	1.739700	1.739700
O	5.219113	1.739700	0.000000
O	3.479413	1.739700	1.739700
O	5.219113	0.000000	1.739700
Si	3.479413	0.000000	0.000000
Li	5.219113	1.739700	5.219113
O	5.219113	1.739700	3.479413
O	3.479413	1.739700	5.219113
O	5.219113	0.000000	5.219113
Si	3.479413	0.000000	3.479413
Li	5.219113	5.219113	1.739700
O	5.219113	5.219113	0.000000
O	3.479413	5.219113	1.739700
O	5.219113	3.479413	1.739700
Si	3.479413	3.479413	0.000000
Li	5.219113	5.219113	5.219113
O	5.219113	5.219113	3.479413
O	3.479413	5.219113	5.219113
O	5.219113	3.479413	5.219113
Si	3.479413	3.479413	3.479413
