40

Ac	0.000000	0.000000	0.000000
Bi	2.249436	2.249436	2.249436
O	2.249436	2.249436	0.000000
O	2.249436	0.000000	2.249436
O	0.000000	2.249436	2.249436
Ac	0.000000	0.000000	4.498873
Bi	2.249436	2.249436	6.748309
O	2.249436	2.249436	4.498873
O	2.249436	0.000000	6.748309
O	0.000000	2.249436	6.748309
Ac	0.000000	4.498873	0.000000
Bi	2.249436	6.748309	2.249436
O	2.249436	6.748309	0.000000
O	2.249436	4.498873	2.249436
O	0.000000	6.748309	2.249436
Ac	0.000000	4.498873	4.498873
Bi	2.249436	6.748309	6.748309
O	2.249436	6.748309	4.498873
O	2.249436	4.498873	6.748309
O	0.000000	6.748309	6.748309
Ac	4.498873	0.000000	0.000000
Bi	6.748309	2.249436	2.249436
O	6.748309	2.249436	0.000000
O	6.748309	0.000000	2.249436
O	4.498873	2.249436	2.249436
Ac	4.498873	0.000000	4.498873
Bi	6.748309	2.249436	6.748309
O	6.748309	2.249436	4.498873
O	6.748309	0.000000	6.748309
O	4.498873	2.249436	6.748309
Ac	4.498873	4.498873	0.000000
Bi	6.748309	6.748309	2.249436
O	6.748309	6.748309	0.000000
O	6.748309	4.498873	2.249436
O	4.498873	6.748309	2.249436
Ac	4.498873	4.498873	4.498873
Bi	6.748309	6.748309	6.748309
O	6.748309	6.748309	4.498873
O	6.748309	4.498873	6.748309
O	4.498873	6.748309	6.748309
