112

Be	0.000000	0.000000	0.000000
Be	2.236897	-2.237101	-2.237101
Eu	-1.118449	-1.118551	-3.355642
Eu	1.118449	1.118551	-3.355642
Eu	3.355336	1.118551	-1.118551
Eu	5.592233	-1.118551	-1.118551
O	0.974799	0.975051	-0.975051
O	-1.262088	1.262040	-3.212152
O	3.211696	-1.262040	-1.262040
O	1.262088	-1.262040	-3.212152
O	0.974799	3.499141	-3.499141
O	3.498986	0.975051	-3.499141
O	3.498986	3.499141	-0.975051
O	5.735873	1.262040	-1.262040
Be	4.473785	4.474195	0.000000
Be	6.710682	2.237094	-2.237101
Eu	3.355336	3.355645	-3.355642
Eu	5.592233	5.592746	-3.355642
Eu	7.829121	5.592746	-1.118551
Eu	10.066018	3.355645	-1.118551
O	5.448584	5.449246	-0.975051
O	3.211697	5.736235	-3.212152
O	7.685481	3.212155	-1.262040
O	5.735873	3.212155	-3.212152
O	5.448584	7.973337	-3.499141
O	7.972770	5.449246	-3.499141
O	7.972770	7.973337	-0.975051
O	10.209658	5.736235	-1.262040
Be	-4.473785	0.000000	-4.474195
Be	-2.236887	-2.237101	-6.711296
Eu	-5.592233	-1.118551	-7.829837
Eu	-3.355336	1.118551	-7.829837
Eu	-1.118449	1.118551	-5.592746
Eu	1.118449	-1.118551	-5.592746
O	-3.498986	0.975051	-5.449246
O	-5.735873	1.262040	-7.686348
O	-1.262088	-1.262040	-5.736235
O	-3.211697	-1.262040	-7.686348
O	-3.498986	3.499141	-7.973337
O	-0.974799	0.975051	-7.973337
O	-0.974799	3.499141	-5.449246
O	1.262088	1.262040	-5.736235
Be	0.000000	4.474195	-4.474195
Be	2.236897	2.237094	-6.711296
Eu	-1.118449	3.355645	-7.829837
Eu	1.118449	5.592746	-7.829837
Eu	3.355336	5.592746	-5.592746
Eu	5.592233	3.355645	-5.592746
O	0.974799	5.449246	-5.449246
O	-1.262088	5.736235	-7.686348
O	3.211696	3.212155	-5.736235
O	1.262088	3.212155	-7.686348
O	0.974799	7.973337	-7.973337
O	3.498986	5.449246	-7.973337
O	3.498986	7.973337	-5.449246
O	5.735873	5.736235	-5.736235
Be	4.473785	-4.474195	0.000000
Be	6.710682	-6.711296	-2.237101
Eu	3.355336	-5.592746	-3.355642
Eu	5.592233	-3.355645	-3.355642
Eu	7.829121	-3.355645	-1.118551
Eu	10.066018	-5.592746	-1.118551
O	5.448584	-3.499144	-0.975051
O	3.211697	-3.212155	-3.212152
O	7.685481	-5.736235	-1.262040
O	5.735873	-5.736235	-3.212152
O	5.448584	-0.975054	-3.499141
O	7.972770	-3.499144	-3.499141
O	7.972770	-0.975054	-0.975051
O	10.209658	-3.212155	-1.262040
Be	8.947570	0.000000	0.000000
Be	11.184467	-2.237101	-2.237101
Eu	7.829121	-1.118551	-3.355642
Eu	10.066018	1.118551	-3.355642
Eu	12.302906	1.118551	-1.118551
Eu	14.539803	-1.118551	-1.118551
O	9.922369	0.975051	-0.975051
O	7.685481	1.262040	-3.212152
O	12.159266	-1.262040	-1.262040
O	10.209658	-1.262040	-3.212152
O	9.922369	3.499141	-3.499141
O	12.446555	0.975051	-3.499141
O	12.446555	3.499141	-0.975051
O	14.683442	1.262040	-1.262040
Be	0.000000	-4.474195	-4.474195
Be	2.236897	-6.711296	-6.711296
Eu	-1.118449	-5.592746	-7.829837
Eu	1.118449	-3.355645	-7.829837
Eu	3.355336	-3.355645	-5.592746
Eu	5.592233	-5.592746	-5.592746
O	0.974799	-3.499144	-5.449246
O	-1.262088	-3.212155	-7.686348
O	3.211696	-5.736235	-5.736235
O	1.262088	-5.736235	-7.686348
O	0.974799	-0.975054	-7.973337
O	3.498986	-3.499144	-7.973337
O	3.498986	-0.975054	-5.449246
O	5.735873	-3.212155	-5.736235
Be	4.473785	0.000000	-4.474195
Be	6.710682	-2.237101	-6.711296
Eu	3.355336	-1.118551	-7.829837
Eu	5.592233	1.118551	-7.829837
Eu	7.829121	1.118551	-5.592746
Eu	10.066018	-1.118551	-5.592746
O	5.448584	0.975051	-5.449246
O	3.211697	1.262040	-7.686348
O	7.685481	-1.262040	-5.736235
O	5.735873	-1.262040	-7.686348
O	5.448584	3.499141	-7.973337
O	7.972770	0.975051	-7.973337
O	7.972770	3.499141	-5.449246
O	10.209658	1.262040	-5.736235
