40

O	0.000000	2.019487	2.019487
O	2.019487	0.000000	2.019487
O	2.019487	2.019487	0.000000
Te	0.000000	0.000000	0.000000
W	2.019487	2.019487	2.019487
O	0.000000	2.019487	6.058461
O	2.019487	0.000000	6.058461
O	2.019487	2.019487	4.038974
Te	0.000000	0.000000	4.038974
W	2.019487	2.019487	6.058461
O	0.000000	6.058461	2.019487
O	2.019487	4.038974	2.019487
O	2.019487	6.058461	0.000000
Te	0.000000	4.038974	0.000000
W	2.019487	6.058461	2.019487
O	0.000000	6.058461	6.058461
O	2.019487	4.038974	6.058461
O	2.019487	6.058461	4.038974
Te	0.000000	4.038974	4.038974
W	2.019487	6.058461	6.058461
O	4.038974	2.019487	2.019487
O	6.058461	0.000000	2.019487
O	6.058461	2.019487	0.000000
Te	4.038974	0.000000	0.000000
W	6.058461	2.019487	2.019487
O	4.038974	2.019487	6.058461
O	6.058461	0.000000	6.058461
O	6.058461	2.019487	4.038974
Te	4.038974	0.000000	4.038974
W	6.058461	2.019487	6.058461
O	4.038974	6.058461	2.019487
O	6.058461	4.038974	2.019487
O	6.058461	6.058461	0.000000
Te	4.038974	4.038974	0.000000
W	6.058461	6.058461	2.019487
O	4.038974	6.058461	6.058461
O	6.058461	4.038974	6.058461
O	6.058461	6.058461	4.038974
Te	4.038974	4.038974	4.038974
W	6.058461	6.058461	6.058461
