112

Au	0.000000	0.000000	0.000000
Au	2.393489	-2.394063	-2.394063
Dy	-1.196745	-1.197026	-3.591089
Dy	3.590224	1.197026	-1.197026
Dy	5.983713	-1.197026	-1.197026
Dy	1.196745	1.197026	-3.591089
O	3.724004	-1.062486	-1.062486
O	-1.062964	1.062486	-3.725629
O	1.062964	-1.062486	-3.725629
O	1.330515	1.331576	-1.331576
O	5.849932	1.062486	-1.062486
O	1.330515	3.456549	-3.456549
O	3.456453	3.456549	-1.331576
O	3.456453	1.331576	-3.456549
Au	4.786970	4.788117	0.000000
Au	7.180459	2.394054	-2.394063
Dy	3.590226	3.591090	-3.591089
Dy	8.377194	5.985143	-1.197026
Dy	10.770683	3.591090	-1.197026
Dy	5.983715	5.985143	-3.591089
O	8.510974	3.725630	-1.062486
O	3.724006	5.850603	-3.725629
O	5.849934	3.725630	-3.725629
O	6.117485	6.119693	-1.331576
O	10.636903	5.850603	-1.062486
O	6.117485	8.244666	-3.456549
O	8.243423	8.244666	-1.331576
O	8.243423	6.119693	-3.456549
Au	-4.786970	0.000000	-4.788117
Au	-2.393481	-2.394063	-7.182179
Dy	-5.983715	-1.197026	-8.379206
Dy	-1.196746	1.197026	-5.985143
Dy	1.196743	-1.197026	-5.985143
Dy	-3.590226	1.197026	-8.379206
O	-1.062966	-1.062486	-5.850603
O	-5.849934	1.062486	-8.513746
O	-3.724006	-1.062486	-8.513746
O	-3.456455	1.331576	-6.119693
O	1.062962	1.062486	-5.850603
O	-3.456455	3.456549	-8.244666
O	-1.330517	3.456549	-6.119693
O	-1.330517	1.331576	-8.244666
Au	0.000000	4.788117	-4.788117
Au	2.393489	2.394054	-7.182179
Dy	-1.196745	3.591090	-8.379206
Dy	3.590224	5.985143	-5.985143
Dy	5.983713	3.591090	-5.985143
Dy	1.196745	5.985143	-8.379206
O	3.724004	3.725630	-5.850603
O	-1.062964	5.850603	-8.513746
O	1.062964	3.725630	-8.513746
O	1.330515	6.119693	-6.119693
O	5.849932	5.850603	-5.850603
O	1.330515	8.244666	-8.244666
O	3.456453	8.244666	-6.119693
O	3.456453	6.119693	-8.244666
Au	4.786970	-4.788117	0.000000
Au	7.180459	-7.182179	-2.394063
Dy	3.590226	-5.985143	-3.591089
Dy	8.377194	-3.591090	-1.197026
Dy	10.770683	-5.985143	-1.197026
Dy	5.983715	-3.591090	-3.591089
O	8.510974	-5.850603	-1.062486
O	3.724006	-3.725630	-3.725629
O	5.849934	-5.850603	-3.725629
O	6.117485	-3.456540	-1.331576
O	10.636903	-3.725630	-1.062486
O	6.117485	-1.331568	-3.456549
O	8.243423	-1.331568	-1.331576
O	8.243423	-3.456540	-3.456549
Au	9.573940	0.000000	0.000000
Au	11.967429	-2.394063	-2.394063
Dy	8.377196	-1.197026	-3.591089
Dy	13.164164	1.197026	-1.197026
Dy	15.557653	-1.197026	-1.197026
Dy	10.770685	1.197026	-3.591089
O	13.297944	-1.062486	-1.062486
O	8.510976	1.062486	-3.725629
O	10.636905	-1.062486	-3.725629
O	10.904455	1.331576	-1.331576
O	15.423873	1.062486	-1.062486
O	10.904455	3.456549	-3.456549
O	13.030394	3.456549	-1.331576
O	13.030394	1.331576	-3.456549
Au	0.000000	-4.788117	-4.788117
Au	2.393489	-7.182179	-7.182179
Dy	-1.196745	-5.985143	-8.379206
Dy	3.590224	-3.591090	-5.985143
Dy	5.983713	-5.985143	-5.985143
Dy	1.196745	-3.591090	-8.379206
O	3.724004	-5.850603	-5.850603
O	-1.062964	-3.725630	-8.513746
O	1.062964	-5.850603	-8.513746
O	1.330515	-3.456540	-6.119693
O	5.849932	-3.725630	-5.850603
O	1.330515	-1.331568	-8.244666
O	3.456453	-1.331568	-6.119693
O	3.456453	-3.456540	-8.244666
Au	4.786970	0.000000	-4.788117
Au	7.180459	-2.394063	-7.182179
Dy	3.590226	-1.197026	-8.379206
Dy	8.377194	1.197026	-5.985143
Dy	10.770683	-1.197026	-5.985143
Dy	5.983715	1.197026	-8.379206
O	8.510974	-1.062486	-5.850603
O	3.724006	1.062486	-8.513746
O	5.849934	-1.062486	-8.513746
O	6.117485	1.331576	-6.119693
O	10.636903	1.062486	-5.850603
O	6.117485	3.456549	-8.244666
O	8.243423	3.456549	-6.119693
O	8.243423	1.331576	-8.244666
