40

Be	0.000000	0.000000	0.000000
O	0.000000	1.949250	1.949250
O	1.949250	0.000000	1.949250
O	1.949250	1.949250	0.000000
Pt	1.949250	1.949250	1.949250
Be	0.000000	0.000000	3.898501
O	0.000000	1.949250	5.847751
O	1.949250	0.000000	5.847751
O	1.949250	1.949250	3.898501
Pt	1.949250	1.949250	5.847751
Be	0.000000	3.898501	0.000000
O	0.000000	5.847751	1.949250
O	1.949250	3.898501	1.949250
O	1.949250	5.847751	0.000000
Pt	1.949250	5.847751	1.949250
Be	0.000000	3.898501	3.898501
O	0.000000	5.847751	5.847751
O	1.949250	3.898501	5.847751
O	1.949250	5.847751	3.898501
Pt	1.949250	5.847751	5.847751
Be	3.898501	0.000000	0.000000
O	3.898501	1.949250	1.949250
O	5.847751	0.000000	1.949250
O	5.847751	1.949250	0.000000
Pt	5.847751	1.949250	1.949250
Be	3.898501	0.000000	3.898501
O	3.898501	1.949250	5.847751
O	5.847751	0.000000	5.847751
O	5.847751	1.949250	3.898501
Pt	5.847751	1.949250	5.847751
Be	3.898501	3.898501	0.000000
O	3.898501	5.847751	1.949250
O	5.847751	3.898501	1.949250
O	5.847751	5.847751	0.000000
Pt	5.847751	5.847751	1.949250
Be	3.898501	3.898501	3.898501
O	3.898501	5.847751	5.847751
O	5.847751	3.898501	5.847751
O	5.847751	5.847751	3.898501
Pt	5.847751	5.847751	5.847751
