40

Cs	0.000000	0.000000	0.000000
O	0.000000	2.166703	2.166703
O	2.166703	0.000000	2.166703
O	2.166703	2.166703	0.000000
Sn	2.166703	2.166703	2.166703
Cs	0.000000	0.000000	4.333406
O	0.000000	2.166703	6.500109
O	2.166703	0.000000	6.500109
O	2.166703	2.166703	4.333406
Sn	2.166703	2.166703	6.500109
Cs	0.000000	4.333406	0.000000
O	0.000000	6.500109	2.166703
O	2.166703	4.333406	2.166703
O	2.166703	6.500109	0.000000
Sn	2.166703	6.500109	2.166703
Cs	0.000000	4.333406	4.333406
O	0.000000	6.500109	6.500109
O	2.166703	4.333406	6.500109
O	2.166703	6.500109	4.333406
Sn	2.166703	6.500109	6.500109
Cs	4.333406	0.000000	0.000000
O	4.333406	2.166703	2.166703
O	6.500109	0.000000	2.166703
O	6.500109	2.166703	0.000000
Sn	6.500109	2.166703	2.166703
Cs	4.333406	0.000000	4.333406
O	4.333406	2.166703	6.500109
O	6.500109	0.000000	6.500109
O	6.500109	2.166703	4.333406
Sn	6.500109	2.166703	6.500109
Cs	4.333406	4.333406	0.000000
O	4.333406	6.500109	2.166703
O	6.500109	4.333406	2.166703
O	6.500109	6.500109	0.000000
Sn	6.500109	6.500109	2.166703
Cs	4.333406	4.333406	4.333406
O	4.333406	6.500109	6.500109
O	6.500109	4.333406	6.500109
O	6.500109	6.500109	4.333406
Sn	6.500109	6.500109	6.500109
