112

Cd	0.000000	0.000000	0.000000
Cd	2.199254	-2.199857	-2.199857
O	3.448468	-0.949769	-0.949769
O	-0.950039	0.949769	-3.449944
O	0.950040	-0.949769	-3.449944
O	1.249214	1.250087	-1.250087
O	5.348547	0.949769	-0.949769
O	1.249214	3.149626	-3.149626
O	3.149293	3.149626	-1.250087
O	3.149293	1.250087	-3.149626
Ti	-1.099627	-1.099928	-3.299785
Ti	3.298881	1.099928	-1.099928
Ti	5.498135	-1.099928	-1.099928
Ti	1.099627	1.099928	-3.299785
Cd	4.398508	4.399713	0.000000
Cd	6.597762	2.199857	-2.199857
O	7.846976	3.449944	-0.949769
O	3.448468	5.349483	-3.449944
O	5.348547	3.449944	-3.449944
O	5.647722	5.649800	-1.250087
O	9.747055	5.349483	-0.949769
O	5.647722	7.549339	-3.149626
O	7.547801	7.549339	-1.250087
O	7.547801	5.649800	-3.149626
Ti	3.298881	3.299785	-3.299785
Ti	7.697389	5.499642	-1.099928
Ti	9.896643	3.299785	-1.099928
Ti	5.498135	5.499642	-3.299785
Cd	-4.398508	0.000000	-4.399713
Cd	-2.199254	-2.199857	-6.599570
O	-0.950040	-0.949769	-5.349483
O	-5.348547	0.949769	-7.849657
O	-3.448468	-0.949769	-7.849657
O	-3.149293	1.250087	-5.649800
O	0.950039	0.949769	-5.349483
O	-3.149293	3.149626	-7.549339
O	-1.249214	3.149626	-5.649800
O	-1.249214	1.250087	-7.549339
Ti	-5.498135	-1.099928	-7.699498
Ti	-1.099627	1.099928	-5.499642
Ti	1.099627	-1.099928	-5.499642
Ti	-3.298881	1.099928	-7.699498
Cd	0.000000	4.399713	-4.399713
Cd	2.199254	2.199857	-6.599570
O	3.448468	3.449944	-5.349483
O	-0.950039	5.349483	-7.849657
O	0.950040	3.449944	-7.849657
O	1.249214	5.649800	-5.649800
O	5.348547	5.349483	-5.349483
O	1.249214	7.549339	-7.549339
O	3.149293	7.549339	-5.649800
O	3.149293	5.649800	-7.549339
Ti	-1.099627	3.299785	-7.699498
Ti	3.298881	5.499642	-5.499642
Ti	5.498135	3.299785	-5.499642
Ti	1.099627	5.499642	-7.699498
Cd	4.398508	-4.399713	0.000000
Cd	6.597762	-6.599570	-2.199857
O	7.846976	-5.349483	-0.949769
O	3.448468	-3.449944	-3.449944
O	5.348547	-5.349483	-3.449944
O	5.647722	-3.149626	-1.250087
O	9.747055	-3.449944	-0.949769
O	5.647722	-1.250087	-3.149626
O	7.547801	-1.250087	-1.250087
O	7.547801	-3.149626	-3.149626
Ti	3.298881	-5.499642	-3.299785
Ti	7.697389	-3.299785	-1.099928
Ti	9.896643	-5.499642	-1.099928
Ti	5.498135	-3.299785	-3.299785
Cd	8.797016	0.000000	0.000000
Cd	10.996270	-2.199857	-2.199857
O	12.245484	-0.949769	-0.949769
O	7.846976	0.949769	-3.449944
O	9.747055	-0.949769	-3.449944
O	10.046230	1.250087	-1.250087
O	14.145563	0.949769	-0.949769
O	10.046230	3.149626	-3.149626
O	11.946309	3.149626	-1.250087
O	11.946309	1.250087	-3.149626
Ti	7.697389	-1.099928	-3.299785
Ti	12.095897	1.099928	-1.099928
Ti	14.295151	-1.099928	-1.099928
Ti	9.896643	1.099928	-3.299785
Cd	0.000000	-4.399713	-4.399713
Cd	2.199254	-6.599570	-6.599570
O	3.448468	-5.349483	-5.349483
O	-0.950039	-3.449944	-7.849657
O	0.950040	-5.349483	-7.849657
O	1.249214	-3.149626	-5.649800
O	5.348547	-3.449944	-5.349483
O	1.249214	-1.250087	-7.549339
O	3.149293	-1.250087	-5.649800
O	3.149293	-3.149626	-7.549339
Ti	-1.099627	-5.499642	-7.699498
Ti	3.298881	-3.299785	-5.499642
Ti	5.498135	-5.499642	-5.499642
Ti	1.099627	-3.299785	-7.699498
Cd	4.398508	0.000000	-4.399713
Cd	6.597762	-2.199857	-6.599570
O	7.846976	-0.949769	-5.349483
O	3.448468	0.949769	-7.849657
O	5.348547	-0.949769	-7.849657
O	5.647722	1.250087	-5.649800
O	9.747055	0.949769	-5.349483
O	5.647722	3.149626	-7.549339
O	7.547801	3.149626	-5.649800
O	7.547801	1.250087	-7.549339
Ti	3.298881	-1.099928	-7.699498
Ti	7.697389	1.099928	-5.499642
Ti	9.896643	-1.099928	-5.499642
Ti	5.498135	1.099928	-7.699498
