40

O	0.000000	2.001169	2.001169
O	2.001169	0.000000	2.001169
O	2.001169	2.001169	0.000000
Pt	2.001169	2.001169	2.001169
Zr	0.000000	0.000000	0.000000
O	0.000000	2.001169	6.003508
O	2.001169	0.000000	6.003508
O	2.001169	2.001169	4.002338
Pt	2.001169	2.001169	6.003508
Zr	0.000000	0.000000	4.002338
O	0.000000	6.003508	2.001169
O	2.001169	4.002338	2.001169
O	2.001169	6.003508	0.000000
Pt	2.001169	6.003508	2.001169
Zr	0.000000	4.002338	0.000000
O	0.000000	6.003508	6.003508
O	2.001169	4.002338	6.003508
O	2.001169	6.003508	4.002338
Pt	2.001169	6.003508	6.003508
Zr	0.000000	4.002338	4.002338
O	4.002338	2.001169	2.001169
O	6.003508	0.000000	2.001169
O	6.003508	2.001169	0.000000
Pt	6.003508	2.001169	2.001169
Zr	4.002338	0.000000	0.000000
O	4.002338	2.001169	6.003508
O	6.003508	0.000000	6.003508
O	6.003508	2.001169	4.002338
Pt	6.003508	2.001169	6.003508
Zr	4.002338	0.000000	4.002338
O	4.002338	6.003508	2.001169
O	6.003508	4.002338	2.001169
O	6.003508	6.003508	0.000000
Pt	6.003508	6.003508	2.001169
Zr	4.002338	4.002338	0.000000
O	4.002338	6.003508	6.003508
O	6.003508	4.002338	6.003508
O	6.003508	6.003508	4.002338
Pt	6.003508	6.003508	6.003508
Zr	4.002338	4.002338	4.002338
