40

O	0.000000	1.994892	1.994892
O	1.994892	0.000000	1.994892
O	1.994892	1.994892	0.000000
Rh	1.994892	1.994892	1.994892
Sr	0.000000	0.000000	0.000000
O	0.000000	1.994892	5.984676
O	1.994892	0.000000	5.984676
O	1.994892	1.994892	3.989784
Rh	1.994892	1.994892	5.984676
Sr	0.000000	0.000000	3.989784
O	0.000000	5.984676	1.994892
O	1.994892	3.989784	1.994892
O	1.994892	5.984676	0.000000
Rh	1.994892	5.984676	1.994892
Sr	0.000000	3.989784	0.000000
O	0.000000	5.984676	5.984676
O	1.994892	3.989784	5.984676
O	1.994892	5.984676	3.989784
Rh	1.994892	5.984676	5.984676
Sr	0.000000	3.989784	3.989784
O	3.989784	1.994892	1.994892
O	5.984676	0.000000	1.994892
O	5.984676	1.994892	0.000000
Rh	5.984676	1.994892	1.994892
Sr	3.989784	0.000000	0.000000
O	3.989784	1.994892	5.984676
O	5.984676	0.000000	5.984676
O	5.984676	1.994892	3.989784
Rh	5.984676	1.994892	5.984676
Sr	3.989784	0.000000	3.989784
O	3.989784	5.984676	1.994892
O	5.984676	3.989784	1.994892
O	5.984676	5.984676	0.000000
Rh	5.984676	5.984676	1.994892
Sr	3.989784	3.989784	0.000000
O	3.989784	5.984676	5.984676
O	5.984676	3.989784	5.984676
O	5.984676	5.984676	3.989784
Rh	5.984676	5.984676	5.984676
Sr	3.989784	3.989784	3.989784
