40

I	2.118497	2.118497	2.118497
Mn	0.000000	0.000000	0.000000
O	0.000000	2.118497	2.118497
O	2.118497	0.000000	2.118497
O	2.118497	2.118497	0.000000
I	2.118497	2.118497	6.355490
Mn	0.000000	0.000000	4.236993
O	0.000000	2.118497	6.355490
O	2.118497	0.000000	6.355490
O	2.118497	2.118497	4.236993
I	2.118497	6.355490	2.118497
Mn	0.000000	4.236993	0.000000
O	0.000000	6.355490	2.118497
O	2.118497	4.236993	2.118497
O	2.118497	6.355490	0.000000
I	2.118497	6.355490	6.355490
Mn	0.000000	4.236993	4.236993
O	0.000000	6.355490	6.355490
O	2.118497	4.236993	6.355490
O	2.118497	6.355490	4.236993
I	6.355490	2.118497	2.118497
Mn	4.236993	0.000000	0.000000
O	4.236993	2.118497	2.118497
O	6.355490	0.000000	2.118497
O	6.355490	2.118497	0.000000
I	6.355490	2.118497	6.355490
Mn	4.236993	0.000000	4.236993
O	4.236993	2.118497	6.355490
O	6.355490	0.000000	6.355490
O	6.355490	2.118497	4.236993
I	6.355490	6.355490	2.118497
Mn	4.236993	4.236993	0.000000
O	4.236993	6.355490	2.118497
O	6.355490	4.236993	2.118497
O	6.355490	6.355490	0.000000
I	6.355490	6.355490	6.355490
Mn	4.236993	4.236993	4.236993
O	4.236993	6.355490	6.355490
O	6.355490	4.236993	6.355490
O	6.355490	6.355490	4.236993
