40

B	0.000000	0.000000	0.000000
O	2.211766	2.211766	0.000000
O	2.211766	0.000000	2.211766
O	0.000000	2.211766	2.211766
Pm	2.211766	2.211766	2.211766
B	0.000000	0.000000	4.423534
O	2.211766	2.211766	4.423534
O	2.211766	0.000000	6.635300
O	0.000000	2.211766	6.635300
Pm	2.211766	2.211766	6.635300
B	0.000000	4.423534	0.000000
O	2.211766	6.635300	0.000000
O	2.211766	4.423534	2.211766
O	0.000000	6.635300	2.211766
Pm	2.211766	6.635300	2.211766
B	0.000000	4.423534	4.423534
O	2.211766	6.635300	4.423534
O	2.211766	4.423534	6.635300
O	0.000000	6.635300	6.635300
Pm	2.211766	6.635300	6.635300
B	4.423534	0.000000	0.000000
O	6.635300	2.211766	0.000000
O	6.635300	0.000000	2.211766
O	4.423534	2.211766	2.211766
Pm	6.635300	2.211766	2.211766
B	4.423534	0.000000	4.423534
O	6.635300	2.211766	4.423534
O	6.635300	0.000000	6.635300
O	4.423534	2.211766	6.635300
Pm	6.635300	2.211766	6.635300
B	4.423534	4.423534	0.000000
O	6.635300	6.635300	0.000000
O	6.635300	4.423534	2.211766
O	4.423534	6.635300	2.211766
Pm	6.635300	6.635300	2.211766
B	4.423534	4.423534	4.423534
O	6.635300	6.635300	4.423534
O	6.635300	4.423534	6.635300
O	4.423534	6.635300	6.635300
Pm	6.635300	6.635300	6.635300
