112

Cs	0.000000	0.000000	0.000000
Cs	2.090876	-2.071617	-2.071617
O	-0.816969	0.826597	-3.316637
O	3.364783	-0.826597	-0.826597
O	0.816969	-0.826597	-3.316637
O	1.273907	1.245020	-1.245020
O	4.998706	0.826597	-0.826597
O	1.273907	2.898214	-2.898214
O	2.907831	2.898214	-1.245020
O	2.907831	1.245020	-2.898214
Ru	-1.045438	-1.035808	-3.107425
Ru	3.136300	1.035808	-1.035808
Ru	1.045438	1.035808	-3.107425
Ru	5.227176	-1.035808	-1.035808
Cs	4.181741	4.143238	0.000000
Cs	6.272616	2.071621	-2.071617
O	3.364772	4.969834	-3.316637
O	7.546523	3.316641	-0.826597
O	4.998709	3.316641	-3.316637
O	5.455648	5.388258	-1.245020
O	9.180447	4.969834	-0.826597
O	5.455648	7.041451	-2.898214
O	7.089571	7.041451	-1.245020
O	7.089571	5.388258	-2.898214
Ru	3.136303	3.107429	-3.107425
Ru	7.318041	5.179046	-1.035808
Ru	5.227178	5.179046	-3.107425
Ru	9.408916	3.107429	-1.035808
Cs	-4.181741	0.000000	-4.143238
Cs	-2.090865	-2.071617	-6.214854
O	-4.998709	0.826597	-7.459874
O	-0.816958	-0.826597	-4.969834
O	-3.364772	-0.826597	-7.459874
O	-2.907834	1.245020	-5.388258
O	0.816966	0.826597	-4.969834
O	-2.907834	2.898214	-7.041451
O	-1.273910	2.898214	-5.388258
O	-1.273910	1.245020	-7.041451
Ru	-5.227178	-1.035808	-7.250663
Ru	-1.045440	1.035808	-5.179046
Ru	-3.136303	1.035808	-7.250663
Ru	1.045435	-1.035808	-5.179046
Cs	0.000000	4.143238	-4.143238
Cs	2.090876	2.071621	-6.214854
O	-0.816969	4.969834	-7.459874
O	3.364783	3.316641	-4.969834
O	0.816969	3.316641	-7.459874
O	1.273907	5.388258	-5.388258
O	4.998706	4.969834	-4.969834
O	1.273907	7.041451	-7.041451
O	2.907831	7.041451	-5.388258
O	2.907831	5.388258	-7.041451
Ru	-1.045438	3.107429	-7.250663
Ru	3.136300	5.179046	-5.179046
Ru	1.045438	5.179046	-7.250663
Ru	5.227176	3.107429	-5.179046
Cs	4.181741	-4.143238	0.000000
Cs	6.272616	-6.214854	-2.071617
O	3.364772	-3.316641	-3.316637
O	7.546523	-4.969834	-0.826597
O	4.998709	-4.969834	-3.316637
O	5.455648	-2.898218	-1.245020
O	9.180447	-3.316641	-0.826597
O	5.455648	-1.245024	-2.898214
O	7.089571	-1.245024	-1.245020
O	7.089571	-2.898218	-2.898214
Ru	3.136303	-5.179046	-3.107425
Ru	7.318041	-3.107429	-1.035808
Ru	5.227178	-3.107429	-3.107425
Ru	9.408916	-5.179046	-1.035808
Cs	8.363481	0.000000	0.000000
Cs	10.454357	-2.071617	-2.071617
O	7.546513	0.826597	-3.316637
O	11.728264	-0.826597	-0.826597
O	9.180450	-0.826597	-3.316637
O	9.637388	1.245020	-1.245020
O	13.362188	0.826597	-0.826597
O	9.637388	2.898214	-2.898214
O	11.271312	2.898214	-1.245020
O	11.271312	1.245020	-2.898214
Ru	7.318043	-1.035808	-3.107425
Ru	11.499781	1.035808	-1.035808
Ru	9.408919	1.035808	-3.107425
Ru	13.590657	-1.035808	-1.035808
Cs	0.000000	-4.143238	-4.143238
Cs	2.090876	-6.214854	-6.214854
O	-0.816969	-3.316641	-7.459874
O	3.364783	-4.969834	-4.969834
O	0.816969	-4.969834	-7.459874
O	1.273907	-2.898218	-5.388258
O	4.998706	-3.316641	-4.969834
O	1.273907	-1.245024	-7.041451
O	2.907831	-1.245024	-5.388258
O	2.907831	-2.898218	-7.041451
Ru	-1.045438	-5.179046	-7.250663
Ru	3.136300	-3.107429	-5.179046
Ru	1.045438	-3.107429	-7.250663
Ru	5.227176	-5.179046	-5.179046
Cs	4.181741	0.000000	-4.143238
Cs	6.272616	-2.071617	-6.214854
O	3.364772	0.826597	-7.459874
O	7.546523	-0.826597	-4.969834
O	4.998709	-0.826597	-7.459874
O	5.455648	1.245020	-5.388258
O	9.180447	0.826597	-4.969834
O	5.455648	2.898214	-7.041451
O	7.089571	2.898214	-5.388258
O	7.089571	1.245020	-7.041451
Ru	3.136303	-1.035808	-7.250663
Ru	7.318041	1.035808	-5.179046
Ru	5.227178	1.035808	-7.250663
Ru	9.408916	-1.035808	-5.179046
