112

Ho	0.000000	0.000000	0.000000
Ho	2.502877	-2.503333	-2.503333
La	-1.251439	-1.251666	-3.754999
La	3.754316	1.251666	-1.251666
La	6.257193	-1.251666	-1.251666
La	1.251439	1.251666	-3.754999
O	3.746323	-1.259191	-1.259191
O	-1.259432	1.259191	-3.747474
O	1.259432	-1.259191	-3.747474
O	1.243445	1.244141	-1.244141
O	6.265186	1.259191	-1.259191
O	1.243445	3.762524	-3.762524
O	3.762309	3.762524	-1.244141
O	3.762309	1.244141	-3.762524
Ho	5.005755	5.006665	0.000000
Ho	7.508632	2.503333	-2.503333
La	3.754316	3.754999	-3.754999
La	8.760070	6.258332	-1.251666
La	11.262948	3.754999	-1.251666
La	6.257193	6.258332	-3.754999
O	8.752077	3.747474	-1.259191
O	3.746323	6.265857	-3.747474
O	6.265186	3.747474	-3.747474
O	6.249200	6.250807	-1.244141
O	11.270941	6.265857	-1.259191
O	6.249200	8.769189	-3.762524
O	8.768064	8.769189	-1.244141
O	8.768064	6.250807	-3.762524
Ho	-5.005755	0.000000	-5.006665
Ho	-2.502877	-2.503333	-7.509998
La	-6.257193	-1.251666	-8.761664
La	-1.251439	1.251666	-6.258332
La	1.251439	-1.251666	-6.258332
La	-3.754316	1.251666	-8.761664
O	-1.259432	-1.259191	-6.265857
O	-6.265186	1.259191	-8.754139
O	-3.746323	-1.259191	-8.754139
O	-3.762309	1.244141	-6.250807
O	1.259432	1.259191	-6.265857
O	-3.762309	3.762524	-8.769189
O	-1.243445	3.762524	-6.250807
O	-1.243445	1.244141	-8.769189
Ho	0.000000	5.006665	-5.006665
Ho	2.502877	2.503333	-7.509998
La	-1.251439	3.754999	-8.761664
La	3.754316	6.258332	-6.258332
La	6.257193	3.754999	-6.258332
La	1.251439	6.258332	-8.761664
O	3.746323	3.747474	-6.265857
O	-1.259432	6.265857	-8.754139
O	1.259432	3.747474	-8.754139
O	1.243445	6.250807	-6.250807
O	6.265186	6.265857	-6.265857
O	1.243445	8.769189	-8.769189
O	3.762309	8.769189	-6.250807
O	3.762309	6.250807	-8.769189
Ho	5.005755	-5.006665	0.000000
Ho	7.508632	-7.509998	-2.503333
La	3.754316	-6.258332	-3.754999
La	8.760070	-3.754999	-1.251666
La	11.262948	-6.258332	-1.251666
La	6.257193	-3.754999	-3.754999
O	8.752077	-6.265857	-1.259191
O	3.746323	-3.747474	-3.747474
O	6.265186	-6.265857	-3.747474
O	6.249200	-3.762524	-1.244141
O	11.270941	-3.747474	-1.259191
O	6.249200	-1.244141	-3.762524
O	8.768064	-1.244141	-1.244141
O	8.768064	-3.762524	-3.762524
Ho	10.011509	0.000000	0.000000
Ho	12.514386	-2.503333	-2.503333
La	8.760070	-1.251666	-3.754999
La	13.765825	1.251666	-1.251666
La	16.268702	-1.251666	-1.251666
La	11.262948	1.251666	-3.754999
O	13.757832	-1.259191	-1.259191
O	8.752077	1.259191	-3.747474
O	11.270941	-1.259191	-3.747474
O	11.254954	1.244141	-1.244141
O	16.276695	1.259191	-1.259191
O	11.254954	3.762524	-3.762524
O	13.773818	3.762524	-1.244141
O	13.773818	1.244141	-3.762524
Ho	0.000000	-5.006665	-5.006665
Ho	2.502877	-7.509998	-7.509998
La	-1.251439	-6.258332	-8.761664
La	3.754316	-3.754999	-6.258332
La	6.257193	-6.258332	-6.258332
La	1.251439	-3.754999	-8.761664
O	3.746323	-6.265857	-6.265857
O	-1.259432	-3.747474	-8.754139
O	1.259432	-6.265857	-8.754139
O	1.243445	-3.762524	-6.250807
O	6.265186	-3.747474	-6.265857
O	1.243445	-1.244141	-8.769189
O	3.762309	-1.244141	-6.250807
O	3.762309	-3.762524	-8.769189
Ho	5.005755	0.000000	-5.006665
Ho	7.508632	-2.503333	-7.509998
La	3.754316	-1.251666	-8.761664
La	8.760070	1.251666	-6.258332
La	11.262948	-1.251666	-6.258332
La	6.257193	1.251666	-8.761664
O	8.752077	-1.259191	-6.265857
O	3.746323	1.259191	-8.754139
O	6.265186	-1.259191	-8.754139
O	6.249200	1.244141	-6.250807
O	11.270941	1.259191	-6.265857
O	6.249200	3.762524	-8.769189
O	8.768064	3.762524	-6.250807
O	8.768064	1.244141	-8.769189
