256

Cs	-0.000000	4.934517	-0.000000
Cs	-0.000000	8.574866	-0.000000
Cs	2.888923	6.065710	2.340273
Cs	-0.688981	9.094964	-3.865769
Cs	-2.340273	2.888923	-6.065710
Cs	0.688981	4.414419	-3.865769
Cs	-0.000000	0.000000	-4.934517
Cs	4.934517	0.000000	0.000000
Cs	4.414419	3.865769	-0.688981
Cs	2.888923	7.443673	-2.340273
Cs	3.865769	0.688981	-4.414419
Cs	9.094964	3.865769	0.688981
Cs	-0.000000	0.000000	-8.574866
Cs	8.574866	0.000000	0.000000
Cs	6.065710	-2.340273	-2.888923
Cs	2.340273	2.888923	-7.443673
Cs	7.443673	2.340273	-2.888923
Cs	3.865769	-0.688981	-9.094964
O	-0.000000	6.754692	-2.308142
O	4.446550	6.754692	0.000000
O	0.000000	4.446550	-6.754692
O	6.754692	2.308142	0.000000
O	2.308142	-0.000000	-6.754692
O	6.754692	-0.000000	-4.446550
Tl	1.869685	1.869685	1.869685
Tl	-1.869685	1.869685	-1.869685
Tl	5.563586	5.563586	5.563586
Tl	1.191106	1.191106	-1.191106
Tl	1.869685	-1.869685	-1.869685
Tl	4.885007	4.885007	-4.885007
Tl	5.563586	-5.563586	-5.563586
Tl	-5.563586	5.563586	-5.563586
Cs	6.754692	-1.820175	-6.754692
Cs	6.754692	1.820175	-6.754692
Cs	9.643615	-0.688981	-4.414419
Cs	6.065710	2.340273	-10.620460
Cs	4.414419	-3.865769	-12.820402
Cs	7.443673	-2.340273	-10.620460
Cs	6.754692	-6.754692	-11.689209
Cs	11.689209	-6.754692	-6.754692
Cs	11.169111	-2.888923	-7.443673
Cs	9.643615	0.688981	-9.094964
Cs	10.620460	-6.065710	-11.169111
Cs	15.849656	-2.888923	-6.065710
Cs	6.754692	-6.754692	-15.329558
Cs	15.329558	-6.754692	-6.754692
Cs	12.820402	-9.094964	-9.643615
Cs	9.094964	-3.865769	-14.198365
Cs	14.198365	-4.414419	-9.643615
Cs	10.620460	-7.443673	-15.849656
O	6.754692	0.000000	-9.062833
O	11.201242	0.000000	-6.754692
O	6.754692	-2.308142	-13.509383
O	13.509383	-4.446550	-6.754692
O	9.062833	-6.754692	-13.509383
O	13.509383	-6.754692	-11.201242
Tl	8.624377	-4.885007	-4.885007
Tl	4.885007	-4.885007	-8.624377
Tl	12.318278	-1.191106	-1.191106
Tl	7.945797	-5.563586	-7.945797
Tl	8.624377	-8.624377	-8.624377
Tl	11.639699	-1.869685	-11.639699
Tl	12.318278	-12.318278	-12.318278
Tl	1.191106	-1.191106	-12.318278
Cs	6.754692	11.689209	6.754692
Cs	6.754692	15.329558	6.754692
Cs	9.643615	12.820402	9.094964
Cs	6.065710	15.849656	2.888923
Cs	4.414419	9.643615	0.688981
Cs	7.443673	11.169111	2.888923
Cs	6.754692	6.754692	1.820175
Cs	11.689209	6.754692	6.754692
Cs	11.169111	10.620460	6.065710
Cs	9.643615	14.198365	4.414419
Cs	10.620460	7.443673	2.340273
Cs	15.849656	10.620460	7.443673
Cs	6.754692	6.754692	-1.820175
Cs	15.329558	6.754692	6.754692
Cs	12.820402	4.414419	3.865769
Cs	9.094964	9.643615	-0.688981
Cs	14.198365	9.094964	3.865769
Cs	10.620460	6.065710	-2.340273
O	6.754692	13.509383	4.446550
O	11.201242	13.509383	6.754692
O	6.754692	11.201242	0.000000
O	13.509383	9.062833	6.754692
O	9.062833	6.754692	0.000000
O	13.509383	6.754692	2.308142
Tl	8.624377	8.624377	8.624377
Tl	4.885007	8.624377	4.885007
Tl	12.318278	12.318278	12.318278
Tl	7.945797	7.945797	5.563586
Tl	8.624377	4.885007	4.885007
Tl	11.639699	11.639699	1.869685
Tl	12.318278	1.191106	1.191106
Tl	1.191106	12.318278	1.191106
Cs	13.509383	4.934517	0.000000
Cs	13.509383	8.574866	0.000000
Cs	16.398307	6.065710	2.340273
Cs	12.820402	9.094964	-3.865769
Cs	11.169111	2.888923	-6.065710
Cs	14.198365	4.414419	-3.865769
Cs	13.509383	0.000000	-4.934517
Cs	18.443900	0.000000	0.000000
Cs	17.923802	3.865769	-0.688981
Cs	16.398307	7.443673	-2.340273
Cs	17.375152	0.688981	-4.414419
Cs	22.604348	3.865769	0.688981
Cs	13.509383	0.000000	-8.574866
Cs	22.084250	0.000000	0.000000
Cs	19.575094	-2.340273	-2.888923
Cs	15.849656	2.888923	-7.443673
Cs	20.953056	2.340273	-2.888923
Cs	17.375152	-0.688981	-9.094964
O	13.509383	6.754692	-2.308142
O	17.955933	6.754692	0.000000
O	13.509383	4.446550	-6.754692
O	20.264075	2.308142	0.000000
O	15.817525	0.000000	-6.754692
O	20.264075	0.000000	-4.446550
Tl	15.379068	1.869685	1.869685
Tl	11.639699	1.869685	-1.869685
Tl	19.072969	5.563586	5.563586
Tl	14.700489	1.191106	-1.191106
Tl	15.379068	-1.869685	-1.869685
Tl	18.394390	4.885007	-4.885007
Tl	19.072969	-5.563586	-5.563586
Tl	7.945797	5.563586	-5.563586
Cs	-6.754692	11.689209	-6.754692
Cs	-6.754692	15.329558	-6.754692
Cs	-3.865769	12.820402	-4.414419
Cs	-7.443673	15.849656	-10.620460
Cs	-9.094964	9.643615	-12.820402
Cs	-6.065710	11.169111	-10.620460
Cs	-6.754692	6.754692	-11.689209
Cs	-1.820175	6.754692	-6.754692
Cs	-2.340273	10.620460	-7.443673
Cs	-3.865769	14.198365	-9.094964
Cs	-2.888923	7.443673	-11.169111
Cs	2.340273	10.620460	-6.065710
Cs	-6.754692	6.754692	-15.329558
Cs	1.820175	6.754692	-6.754692
Cs	-0.688981	4.414419	-9.643615
Cs	-4.414419	9.643615	-14.198365
Cs	0.688981	9.094964	-9.643615
Cs	-2.888923	6.065710	-15.849656
O	-6.754692	13.509383	-9.062833
O	-2.308142	13.509383	-6.754692
O	-6.754692	11.201242	-13.509383
O	0.000000	9.062833	-6.754692
O	-4.446550	6.754692	-13.509383
O	0.000000	6.754692	-11.201242
Tl	-4.885007	8.624377	-4.885007
Tl	-8.624377	8.624377	-8.624377
Tl	-1.191106	12.318278	-1.191106
Tl	-5.563586	7.945797	-7.945797
Tl	-4.885007	4.885007	-8.624377
Tl	-1.869685	11.639699	-11.639699
Tl	-1.191106	1.191106	-12.318278
Tl	-12.318278	12.318278	-12.318278
Cs	0.000000	4.934517	-13.509383
Cs	0.000000	8.574866	-13.509383
Cs	2.888923	6.065710	-11.169111
Cs	-0.688981	9.094964	-17.375152
Cs	-2.340273	2.888923	-19.575094
Cs	0.688981	4.414419	-17.375152
Cs	0.000000	0.000000	-18.443900
Cs	4.934517	0.000000	-13.509383
Cs	4.414419	3.865769	-14.198365
Cs	2.888923	7.443673	-15.849656
Cs	3.865769	0.688981	-17.923802
Cs	9.094964	3.865769	-12.820402
Cs	0.000000	0.000000	-22.084250
Cs	8.574866	0.000000	-13.509383
Cs	6.065710	-2.340273	-16.398307
Cs	2.340273	2.888923	-20.953056
Cs	7.443673	2.340273	-16.398307
Cs	3.865769	-0.688981	-22.604348
O	0.000000	6.754692	-15.817525
O	4.446550	6.754692	-13.509383
O	0.000000	4.446550	-20.264075
O	6.754692	2.308142	-13.509383
O	2.308142	0.000000	-20.264075
O	6.754692	0.000000	-17.955933
Tl	1.869685	1.869685	-11.639699
Tl	-1.869685	1.869685	-15.379068
Tl	5.563586	5.563586	-7.945797
Tl	1.191106	1.191106	-14.700489
Tl	1.869685	-1.869685	-15.379068
Tl	4.885007	4.885007	-18.394390
Tl	5.563586	-5.563586	-19.072969
Tl	-5.563586	5.563586	-19.072969
Cs	0.000000	18.443900	0.000000
Cs	0.000000	22.084250	0.000000
Cs	2.888923	19.575094	2.340273
Cs	-0.688981	22.604348	-3.865769
Cs	-2.340273	16.398307	-6.065710
Cs	0.688981	17.923802	-3.865769
Cs	0.000000	13.509383	-4.934517
Cs	4.934517	13.509383	0.000000
Cs	4.414419	17.375152	-0.688981
Cs	2.888923	20.953056	-2.340273
Cs	3.865769	14.198365	-4.414419
Cs	9.094964	17.375152	0.688981
Cs	0.000000	13.509383	-8.574866
Cs	8.574866	13.509383	0.000000
Cs	6.065710	11.169111	-2.888923
Cs	2.340273	16.398307	-7.443673
Cs	7.443673	15.849656	-2.888923
Cs	3.865769	12.820402	-9.094964
O	0.000000	20.264075	-2.308142
O	4.446550	20.264075	0.000000
O	0.000000	17.955933	-6.754692
O	6.754692	15.817525	0.000000
O	2.308142	13.509383	-6.754692
O	6.754692	13.509383	-4.446550
Tl	1.869685	15.379068	1.869685
Tl	-1.869685	15.379068	-1.869685
Tl	5.563586	19.072969	5.563586
Tl	1.191106	14.700489	-1.191106
Tl	1.869685	11.639699	-1.869685
Tl	4.885007	18.394390	-4.885007
Tl	5.563586	7.945797	-5.563586
Tl	-5.563586	19.072969	-5.563586
Cs	6.754692	11.689209	-6.754692
Cs	6.754692	15.329558	-6.754692
Cs	9.643615	12.820402	-4.414419
Cs	6.065710	15.849656	-10.620460
Cs	4.414419	9.643615	-12.820402
Cs	7.443673	11.169111	-10.620460
Cs	6.754692	6.754692	-11.689209
Cs	11.689209	6.754692	-6.754692
Cs	11.169111	10.620460	-7.443673
Cs	9.643615	14.198365	-9.094964
Cs	10.620460	7.443673	-11.169111
Cs	15.849656	10.620460	-6.065710
Cs	6.754692	6.754692	-15.329558
Cs	15.329558	6.754692	-6.754692
Cs	12.820402	4.414419	-9.643615
Cs	9.094964	9.643615	-14.198365
Cs	14.198365	9.094964	-9.643615
Cs	10.620460	6.065710	-15.849656
O	6.754692	13.509383	-9.062833
O	11.201242	13.509383	-6.754692
O	6.754692	11.201242	-13.509383
O	13.509383	9.062833	-6.754692
O	9.062833	6.754692	-13.509383
O	13.509383	6.754692	-11.201242
Tl	8.624377	8.624377	-4.885007
Tl	4.885007	8.624377	-8.624377
Tl	12.318278	12.318278	-1.191106
Tl	7.945797	7.945797	-7.945797
Tl	8.624377	4.885007	-8.624377
Tl	11.639699	11.639699	-11.639699
Tl	12.318278	1.191106	-12.318278
Tl	1.191106	12.318278	-12.318278
