112

Mo	0.000000	0.000000	0.000000
Mo	2.299784	-2.300191	-2.300191
O	3.430578	-1.168704	-1.168704
O	-1.168989	1.168704	-3.431678
O	1.168989	-1.168704	-3.431678
O	1.130795	1.131487	-1.131487
O	5.768556	1.168704	-1.168704
O	1.130795	3.468895	-3.468895
O	3.468772	3.468895	-1.131487
O	3.468772	1.131487	-3.468895
Yb	-1.149892	-1.150096	-3.450287
Yb	3.449675	1.150096	-1.150096
Yb	5.749459	-1.150096	-1.150096
Yb	1.149892	1.150096	-3.450287
Mo	4.599567	4.600382	0.000000
Mo	6.899351	2.300191	-2.300191
O	8.030146	3.431678	-1.168704
O	3.430578	5.769086	-3.431678
O	5.768556	3.431678	-3.431678
O	5.730362	5.731869	-1.131487
O	10.368123	5.769086	-1.168704
O	5.730362	8.069277	-3.468895
O	8.068339	8.069277	-1.131487
O	8.068339	5.731869	-3.468895
Yb	3.449675	3.450287	-3.450287
Yb	8.049242	5.750478	-1.150096
Yb	10.349026	3.450287	-1.150096
Yb	5.749459	5.750478	-3.450287
Mo	-4.599567	0.000000	-4.600382
Mo	-2.299784	-2.300191	-6.900573
O	-1.168989	-1.168704	-5.769086
O	-5.768556	1.168704	-8.032060
O	-3.430578	-1.168704	-8.032060
O	-3.468772	1.131487	-5.731869
O	1.168989	1.168704	-5.769086
O	-3.468772	3.468895	-8.069277
O	-1.130795	3.468895	-5.731869
O	-1.130795	1.131487	-8.069277
Yb	-5.749459	-1.150096	-8.050669
Yb	-1.149892	1.150096	-5.750478
Yb	1.149892	-1.150096	-5.750478
Yb	-3.449675	1.150096	-8.050669
Mo	0.000000	4.600382	-4.600382
Mo	2.299784	2.300191	-6.900573
O	3.430578	3.431678	-5.769086
O	-1.168989	5.769086	-8.032060
O	1.168989	3.431678	-8.032060
O	1.130795	5.731869	-5.731869
O	5.768556	5.769086	-5.769086
O	1.130795	8.069277	-8.069277
O	3.468772	8.069277	-5.731869
O	3.468772	5.731869	-8.069277
Yb	-1.149892	3.450287	-8.050669
Yb	3.449675	5.750478	-5.750478
Yb	5.749459	3.450287	-5.750478
Yb	1.149892	5.750478	-8.050669
Mo	4.599567	-4.600382	0.000000
Mo	6.899351	-6.900573	-2.300191
O	8.030146	-5.769086	-1.168704
O	3.430578	-3.431678	-3.431678
O	5.768556	-5.769086	-3.431678
O	5.730362	-3.468895	-1.131487
O	10.368123	-3.431678	-1.168704
O	5.730362	-1.131487	-3.468895
O	8.068339	-1.131487	-1.131487
O	8.068339	-3.468895	-3.468895
Yb	3.449675	-5.750478	-3.450287
Yb	8.049242	-3.450287	-1.150096
Yb	10.349026	-5.750478	-1.150096
Yb	5.749459	-3.450287	-3.450287
Mo	9.199134	0.000000	0.000000
Mo	11.498918	-2.300191	-2.300191
O	12.629713	-1.168704	-1.168704
O	8.030146	1.168704	-3.431678
O	10.368123	-1.168704	-3.431678
O	10.329929	1.131487	-1.131487
O	14.967690	1.168704	-1.168704
O	10.329929	3.468895	-3.468895
O	12.667906	3.468895	-1.131487
O	12.667906	1.131487	-3.468895
Yb	8.049242	-1.150096	-3.450287
Yb	12.648810	1.150096	-1.150096
Yb	14.948593	-1.150096	-1.150096
Yb	10.349026	1.150096	-3.450287
Mo	0.000000	-4.600382	-4.600382
Mo	2.299784	-6.900573	-6.900573
O	3.430578	-5.769086	-5.769086
O	-1.168989	-3.431678	-8.032060
O	1.168989	-5.769086	-8.032060
O	1.130795	-3.468895	-5.731869
O	5.768556	-3.431678	-5.769086
O	1.130795	-1.131487	-8.069277
O	3.468772	-1.131487	-5.731869
O	3.468772	-3.468895	-8.069277
Yb	-1.149892	-5.750478	-8.050669
Yb	3.449675	-3.450287	-5.750478
Yb	5.749459	-5.750478	-5.750478
Yb	1.149892	-3.450287	-8.050669
Mo	4.599567	0.000000	-4.600382
Mo	6.899351	-2.300191	-6.900573
O	8.030146	-1.168704	-5.769086
O	3.430578	1.168704	-8.032060
O	5.768556	-1.168704	-8.032060
O	5.730362	1.131487	-5.731869
O	10.368123	1.168704	-5.769086
O	5.730362	3.468895	-8.069277
O	8.068339	3.468895	-5.731869
O	8.068339	1.131487	-8.069277
Yb	3.449675	-1.150096	-8.050669
Yb	8.049242	1.150096	-5.750478
Yb	10.349026	-1.150096	-5.750478
Yb	5.749459	1.150096	-8.050669
