112

O	3.859122	-1.130477	-1.130477
O	-1.131187	1.130477	-3.860503
O	1.131187	-1.130477	-3.860503
O	1.363968	1.365013	-1.365013
O	6.121495	1.130477	-1.130477
O	1.363967	3.625967	-3.625967
O	3.626341	3.625967	-1.365013
O	3.626341	1.365013	-3.625967
Os	0.000000	0.000000	0.000000
Os	2.495154	-2.495490	-2.495490
Th	-1.247577	-1.247745	-3.743235
Th	3.742732	1.247745	-1.247745
Th	6.237886	-1.247745	-1.247745
Th	1.247577	1.247745	-3.743235
O	8.849430	3.860503	-1.130477
O	3.859122	6.121456	-3.860503
O	6.121496	3.860503	-3.860503
O	6.354276	6.355993	-1.365013
O	11.111804	6.121456	-1.130477
O	6.354276	8.616946	-3.625967
O	8.616650	8.616946	-1.365013
O	8.616650	6.355993	-3.625967
Os	4.990309	4.990980	0.000000
Os	7.485463	2.495490	-2.495490
Th	3.742732	3.743235	-3.743235
Th	8.733040	6.238725	-1.247745
Th	11.228195	3.743235	-1.247745
Th	6.237886	6.238725	-3.743235
O	-1.131187	-1.130477	-6.121456
O	-6.121495	1.130477	-8.851483
O	-3.859122	-1.130477	-8.851483
O	-3.626341	1.365013	-6.355993
O	1.131187	1.130477	-6.121456
O	-3.626341	3.625967	-8.616946
O	-1.363967	3.625967	-6.355993
O	-1.363968	1.365013	-8.616946
Os	-4.990309	0.000000	-4.990980
Os	-2.495154	-2.495490	-7.486470
Th	-6.237886	-1.247745	-8.734214
Th	-1.247577	1.247745	-6.238725
Th	1.247577	-1.247745	-6.238725
Th	-3.742732	1.247745	-8.734214
O	3.859122	3.860503	-6.121456
O	-1.131187	6.121456	-8.851483
O	1.131187	3.860503	-8.851483
O	1.363968	6.355993	-6.355993
O	6.121495	6.121456	-6.121456
O	1.363967	8.616946	-8.616946
O	3.626341	8.616946	-6.355993
O	3.626341	6.355993	-8.616946
Os	0.000000	4.990980	-4.990980
Os	2.495154	2.495490	-7.486470
Th	-1.247577	3.743235	-8.734214
Th	3.742732	6.238725	-6.238725
Th	6.237886	3.743235	-6.238725
Th	1.247577	6.238725	-8.734214
O	8.849430	-6.121456	-1.130477
O	3.859122	-3.860503	-3.860503
O	6.121496	-6.121456	-3.860503
O	6.354276	-3.625967	-1.365013
O	11.111804	-3.860503	-1.130477
O	6.354276	-1.365013	-3.625967
O	8.616650	-1.365013	-1.365013
O	8.616650	-3.625967	-3.625967
Os	4.990309	-4.990980	0.000000
Os	7.485463	-7.486470	-2.495490
Th	3.742732	-6.238725	-3.743235
Th	8.733040	-3.743235	-1.247745
Th	11.228195	-6.238725	-1.247745
Th	6.237886	-3.743235	-3.743235
O	13.839739	-1.130477	-1.130477
O	8.849431	1.130477	-3.860503
O	11.111804	-1.130477	-3.860503
O	11.344585	1.365013	-1.365013
O	16.102113	1.130477	-1.130477
O	11.344585	3.625967	-3.625967
O	13.606959	3.625967	-1.365013
O	13.606958	1.365013	-3.625967
Os	9.980617	0.000000	0.000000
Os	12.475772	-2.495490	-2.495490
Th	8.733040	-1.247745	-3.743235
Th	13.723349	1.247745	-1.247745
Th	16.218503	-1.247745	-1.247745
Th	11.228195	1.247745	-3.743235
O	3.859122	-6.121456	-6.121456
O	-1.131187	-3.860503	-8.851483
O	1.131187	-6.121456	-8.851483
O	1.363968	-3.625967	-6.355993
O	6.121495	-3.860503	-6.121456
O	1.363967	-1.365013	-8.616946
O	3.626341	-1.365013	-6.355993
O	3.626341	-3.625967	-8.616946
Os	0.000000	-4.990980	-4.990980
Os	2.495154	-7.486470	-7.486470
Th	-1.247577	-6.238725	-8.734214
Th	3.742732	-3.743235	-6.238725
Th	6.237886	-6.238725	-6.238725
Th	1.247577	-3.743235	-8.734214
O	8.849430	-1.130477	-6.121456
O	3.859122	1.130477	-8.851483
O	6.121496	-1.130477	-8.851483
O	6.354276	1.365013	-6.355993
O	11.111804	1.130477	-6.121456
O	6.354276	3.625967	-8.616946
O	8.616650	3.625967	-6.355993
O	8.616650	1.365013	-8.616946
Os	4.990309	0.000000	-4.990980
Os	7.485463	-2.495490	-7.486470
Th	3.742732	-1.247745	-8.734214
Th	8.733040	1.247745	-6.238725
Th	11.228195	-1.247745	-6.238725
Th	6.237886	1.247745	-8.734214
