40

Gd	2.154901	2.154901	2.154901
O	2.154901	2.154901	0.000000
O	0.000000	2.154901	2.154901
O	2.154901	0.000000	2.154901
Y	0.000000	0.000000	0.000000
Gd	2.154901	2.154901	6.464695
O	2.154901	2.154901	4.309794
O	0.000000	2.154901	6.464695
O	2.154901	0.000000	6.464695
Y	0.000000	0.000000	4.309794
Gd	2.154901	6.464695	2.154901
O	2.154901	6.464695	0.000000
O	0.000000	6.464695	2.154901
O	2.154901	4.309794	2.154901
Y	0.000000	4.309794	0.000000
Gd	2.154901	6.464695	6.464695
O	2.154901	6.464695	4.309794
O	0.000000	6.464695	6.464695
O	2.154901	4.309794	6.464695
Y	0.000000	4.309794	4.309794
Gd	6.464695	2.154901	2.154901
O	6.464695	2.154901	0.000000
O	4.309794	2.154901	2.154901
O	6.464695	0.000000	2.154901
Y	4.309794	0.000000	0.000000
Gd	6.464695	2.154901	6.464695
O	6.464695	2.154901	4.309794
O	4.309794	2.154901	6.464695
O	6.464695	0.000000	6.464695
Y	4.309794	0.000000	4.309794
Gd	6.464695	6.464695	2.154901
O	6.464695	6.464695	0.000000
O	4.309794	6.464695	2.154901
O	6.464695	4.309794	2.154901
Y	4.309794	4.309794	0.000000
Gd	6.464695	6.464695	6.464695
O	6.464695	6.464695	4.309794
O	4.309794	6.464695	6.464695
O	6.464695	4.309794	6.464695
Y	4.309794	4.309794	4.309794
