112

Gd	0.000000	0.000000	0.000000
Gd	2.387123	-2.387773	-2.387773
Ho	-1.193557	-1.193882	-3.581655
Ho	5.967793	-1.193882	-1.193882
Ho	3.580680	1.193882	-1.193882
Ho	1.193557	1.193882	-3.581655
O	3.673979	-1.100094	-1.100094
O	-1.100257	1.100094	-3.675443
O	1.100257	-1.100094	-3.675443
O	1.286856	1.287670	-1.287670
O	5.874494	1.100094	-1.100094
O	1.286856	3.487867	-3.487867
O	3.487380	3.487867	-1.287670
O	3.487380	1.287670	-3.487867
Gd	4.774237	4.775537	0.000000
Gd	7.161360	2.387764	-2.387773
Ho	3.580680	3.581656	-3.581655
Ho	10.742030	3.581656	-1.193882
Ho	8.354917	5.969419	-1.193882
Ho	5.967794	5.969419	-3.581655
O	8.448216	3.675444	-1.100094
O	3.673980	5.875631	-3.675443
O	5.874494	3.675444	-3.675443
O	6.061093	6.063207	-1.287670
O	10.648731	5.875631	-1.100094
O	6.061093	8.263404	-3.487867
O	8.261618	8.263404	-1.287670
O	8.261618	6.063207	-3.487867
Gd	-4.774237	0.000000	-4.775537
Gd	-2.387114	-2.387773	-7.163311
Ho	-5.967794	-1.193882	-8.357193
Ho	1.193556	-1.193882	-5.969419
Ho	-1.193557	1.193882	-5.969419
Ho	-3.580680	1.193882	-8.357193
O	-1.100258	-1.100094	-5.875631
O	-5.874494	1.100094	-8.450981
O	-3.673980	-1.100094	-8.450981
O	-3.487381	1.287670	-6.063207
O	1.100257	1.100094	-5.875631
O	-3.487381	3.487867	-8.263404
O	-1.286857	3.487867	-6.063207
O	-1.286857	1.287670	-8.263404
Gd	0.000000	4.775537	-4.775537
Gd	2.387123	2.387764	-7.163311
Ho	-1.193557	3.581656	-8.357193
Ho	5.967793	3.581656	-5.969419
Ho	3.580680	5.969419	-5.969419
Ho	1.193557	5.969419	-8.357193
O	3.673979	3.675444	-5.875631
O	-1.100257	5.875631	-8.450981
O	1.100257	3.675444	-8.450981
O	1.286856	6.063207	-6.063207
O	5.874494	5.875631	-5.875631
O	1.286856	8.263404	-8.263404
O	3.487380	8.263404	-6.063207
O	3.487380	6.063207	-8.263404
Gd	4.774237	-4.775537	0.000000
Gd	7.161360	-7.163311	-2.387773
Ho	3.580680	-5.969419	-3.581655
Ho	10.742030	-5.969419	-1.193882
Ho	8.354917	-3.581656	-1.193882
Ho	5.967794	-3.581656	-3.581655
O	8.448216	-5.875631	-1.100094
O	3.673980	-3.675444	-3.675443
O	5.874494	-5.875631	-3.675443
O	6.061093	-3.487867	-1.287670
O	10.648731	-3.675444	-1.100094
O	6.061093	-1.287670	-3.487867
O	8.261618	-1.287670	-1.287670
O	8.261618	-3.487867	-3.487867
Gd	9.548474	0.000000	0.000000
Gd	11.935597	-2.387773	-2.387773
Ho	8.354917	-1.193882	-3.581655
Ho	15.516267	-1.193882	-1.193882
Ho	13.129154	1.193882	-1.193882
Ho	10.742031	1.193882	-3.581655
O	13.222453	-1.100094	-1.100094
O	8.448217	1.100094	-3.675443
O	10.648731	-1.100094	-3.675443
O	10.835330	1.287670	-1.287670
O	15.422968	1.100094	-1.100094
O	10.835330	3.487867	-3.487867
O	13.035855	3.487867	-1.287670
O	13.035855	1.287670	-3.487867
Gd	0.000000	-4.775537	-4.775537
Gd	2.387123	-7.163311	-7.163311
Ho	-1.193557	-5.969419	-8.357193
Ho	5.967793	-5.969419	-5.969419
Ho	3.580680	-3.581656	-5.969419
Ho	1.193557	-3.581656	-8.357193
O	3.673979	-5.875631	-5.875631
O	-1.100257	-3.675444	-8.450981
O	1.100257	-5.875631	-8.450981
O	1.286856	-3.487867	-6.063207
O	5.874494	-3.675444	-5.875631
O	1.286856	-1.287670	-8.263404
O	3.487380	-1.287670	-6.063207
O	3.487380	-3.487867	-8.263404
Gd	4.774237	0.000000	-4.775537
Gd	7.161360	-2.387773	-7.163311
Ho	3.580680	-1.193882	-8.357193
Ho	10.742030	-1.193882	-5.969419
Ho	8.354917	1.193882	-5.969419
Ho	5.967794	1.193882	-8.357193
O	8.448216	-1.100094	-5.875631
O	3.673980	1.100094	-8.450981
O	5.874494	-1.100094	-8.450981
O	6.061093	1.287670	-6.063207
O	10.648731	1.100094	-5.875631
O	6.061093	3.487867	-8.263404
O	8.261618	3.487867	-6.063207
O	8.261618	1.287670	-8.263404
