112

Gd	0.000000	0.000000	0.000000
Gd	2.401965	-2.402465	-2.402465
Ho	-1.200983	-1.201233	-3.603698
Ho	3.602948	1.201233	-1.201233
Ho	6.004914	-1.201233	-1.201233
Ho	1.200983	1.201233	-3.603698
O	3.700690	-1.102852	-1.102852
O	-1.103241	1.102852	-3.702079
O	1.103241	-1.102852	-3.702079
O	1.298725	1.299614	-1.299614
O	5.907171	1.102852	-1.102852
O	1.298725	3.505317	-3.505317
O	3.505206	3.505317	-1.299614
O	3.505206	1.299614	-3.505317
Gd	4.803931	4.804930	0.000000
Gd	7.205896	2.402465	-2.402465
Ho	3.602948	3.603698	-3.603698
Ho	8.406879	6.006163	-1.201233
Ho	10.808844	3.603698	-1.201233
Ho	6.004914	6.006163	-3.603698
O	8.504621	3.702079	-1.102852
O	3.700690	5.907782	-3.702079
O	5.907171	3.702079	-3.702079
O	6.102656	6.104544	-1.299614
O	10.711102	5.907782	-1.102852
O	6.102656	8.310247	-3.505317
O	8.309137	8.310247	-1.299614
O	8.309137	6.104544	-3.505317
Gd	-4.803931	0.000000	-4.804930
Gd	-2.401965	-2.402465	-7.207396
Ho	-6.004914	-1.201233	-8.408628
Ho	-1.200983	1.201233	-6.006163
Ho	1.200983	-1.201233	-6.006163
Ho	-3.602948	1.201233	-8.408628
O	-1.103241	-1.102852	-5.907782
O	-5.907171	1.102852	-8.507009
O	-3.700690	-1.102852	-8.507009
O	-3.505206	1.299614	-6.104544
O	1.103241	1.102852	-5.907782
O	-3.505206	3.505317	-8.310247
O	-1.298725	3.505317	-6.104544
O	-1.298725	1.299614	-8.310247
Gd	0.000000	4.804930	-4.804930
Gd	2.401965	2.402465	-7.207396
Ho	-1.200983	3.603698	-8.408628
Ho	3.602948	6.006163	-6.006163
Ho	6.004914	3.603698	-6.006163
Ho	1.200983	6.006163	-8.408628
O	3.700690	3.702079	-5.907782
O	-1.103241	5.907782	-8.507009
O	1.103241	3.702079	-8.507009
O	1.298725	6.104544	-6.104544
O	5.907171	5.907782	-5.907782
O	1.298725	8.310247	-8.310247
O	3.505206	8.310247	-6.104544
O	3.505206	6.104544	-8.310247
Gd	4.803931	-4.804930	0.000000
Gd	7.205896	-7.207396	-2.402465
Ho	3.602948	-6.006163	-3.603698
Ho	8.406879	-3.603698	-1.201233
Ho	10.808844	-6.006163	-1.201233
Ho	6.004914	-3.603698	-3.603698
O	8.504621	-5.907782	-1.102852
O	3.700690	-3.702079	-3.702079
O	5.907171	-5.907782	-3.702079
O	6.102656	-3.505317	-1.299614
O	10.711102	-3.702079	-1.102852
O	6.102656	-1.299614	-3.505317
O	8.309137	-1.299614	-1.299614
O	8.309137	-3.505317	-3.505317
Gd	9.607862	0.000000	0.000000
Gd	12.009827	-2.402465	-2.402465
Ho	8.406879	-1.201233	-3.603698
Ho	13.210810	1.201233	-1.201233
Ho	15.612775	-1.201233	-1.201233
Ho	10.808844	1.201233	-3.603698
O	13.308552	-1.102852	-1.102852
O	8.504621	1.102852	-3.702079
O	10.711102	-1.102852	-3.702079
O	10.906587	1.299614	-1.299614
O	15.515033	1.102852	-1.102852
O	10.906587	3.505317	-3.505317
O	13.113068	3.505317	-1.299614
O	13.113068	1.299614	-3.505317
Gd	0.000000	-4.804930	-4.804930
Gd	2.401965	-7.207396	-7.207396
Ho	-1.200983	-6.006163	-8.408628
Ho	3.602948	-3.603698	-6.006163
Ho	6.004914	-6.006163	-6.006163
Ho	1.200983	-3.603698	-8.408628
O	3.700690	-5.907782	-5.907782
O	-1.103241	-3.702079	-8.507009
O	1.103241	-5.907782	-8.507009
O	1.298725	-3.505317	-6.104544
O	5.907171	-3.702079	-5.907782
O	1.298725	-1.299614	-8.310247
O	3.505206	-1.299614	-6.104544
O	3.505206	-3.505317	-8.310247
Gd	4.803931	0.000000	-4.804930
Gd	7.205896	-2.402465	-7.207396
Ho	3.602948	-1.201233	-8.408628
Ho	8.406879	1.201233	-6.006163
Ho	10.808844	-1.201233	-6.006163
Ho	6.004914	1.201233	-8.408628
O	8.504621	-1.102852	-5.907782
O	3.700690	1.102852	-8.507009
O	5.907171	-1.102852	-8.507009
O	6.102656	1.299614	-6.104544
O	10.711102	1.102852	-5.907782
O	6.102656	3.505317	-8.310247
O	8.309137	3.505317	-6.104544
O	8.309137	1.299614	-8.310247
