112

Ir	0.000000	0.000000	0.000000
Ir	2.244538	-2.245190	-2.245190
O	3.494325	-0.994548	-0.994548
O	-0.994752	0.994548	-3.495831
O	0.994752	-0.994548	-3.495831
O	1.249787	1.250641	-1.250641
O	5.483828	0.994548	-0.994548
O	1.249787	3.239738	-3.239738
O	3.239290	3.239738	-1.250641
O	3.239290	1.250641	-3.239738
Sc	-1.122269	-1.122595	-3.367785
Sc	3.366807	1.122595	-1.122595
Sc	5.611345	-1.122595	-1.122595
Sc	1.122269	1.122595	-3.367785
Ir	4.489076	4.490380	0.000000
Ir	6.733614	2.245190	-2.245190
O	7.983401	3.495831	-0.994548
O	3.494325	5.484928	-3.495831
O	5.483828	3.495831	-3.495831
O	5.738863	5.741021	-1.250641
O	9.972904	5.484928	-0.994548
O	5.738863	7.730118	-3.239738
O	7.728366	7.730118	-1.250641
O	7.728366	5.741021	-3.239738
Sc	3.366807	3.367785	-3.367785
Sc	7.855883	5.612974	-1.122595
Sc	10.100421	3.367785	-1.122595
Sc	5.611345	5.612974	-3.367785
Ir	-4.489076	0.000000	-4.490380
Ir	-2.244538	-2.245190	-6.735569
O	-0.994752	-0.994548	-5.484928
O	-5.483828	0.994548	-7.986211
O	-3.494325	-0.994548	-7.986211
O	-3.239290	1.250641	-5.741021
O	0.994752	0.994548	-5.484928
O	-3.239290	3.239738	-7.730118
O	-1.249787	3.239738	-5.741021
O	-1.249787	1.250641	-7.730118
Sc	-5.611345	-1.122595	-7.858164
Sc	-1.122269	1.122595	-5.612974
Sc	1.122269	-1.122595	-5.612974
Sc	-3.366807	1.122595	-7.858164
Ir	0.000000	4.490380	-4.490380
Ir	2.244538	2.245190	-6.735569
O	3.494325	3.495831	-5.484928
O	-0.994752	5.484928	-7.986211
O	0.994752	3.495831	-7.986211
O	1.249787	5.741021	-5.741021
O	5.483828	5.484928	-5.484928
O	1.249787	7.730118	-7.730118
O	3.239290	7.730118	-5.741021
O	3.239290	5.741021	-7.730118
Sc	-1.122269	3.367785	-7.858164
Sc	3.366807	5.612974	-5.612974
Sc	5.611345	3.367785	-5.612974
Sc	1.122269	5.612974	-7.858164
Ir	4.489076	-4.490380	0.000000
Ir	6.733614	-6.735569	-2.245190
O	7.983401	-5.484928	-0.994548
O	3.494325	-3.495831	-3.495831
O	5.483828	-5.484928	-3.495831
O	5.738863	-3.239738	-1.250641
O	9.972904	-3.495831	-0.994548
O	5.738863	-1.250641	-3.239738
O	7.728366	-1.250641	-1.250641
O	7.728366	-3.239738	-3.239738
Sc	3.366807	-5.612974	-3.367785
Sc	7.855883	-3.367785	-1.122595
Sc	10.100421	-5.612974	-1.122595
Sc	5.611345	-3.367785	-3.367785
Ir	8.978152	0.000000	0.000000
Ir	11.222690	-2.245190	-2.245190
O	12.472477	-0.994548	-0.994548
O	7.983401	0.994548	-3.495831
O	9.972904	-0.994548	-3.495831
O	10.227939	1.250641	-1.250641
O	14.461980	0.994548	-0.994548
O	10.227939	3.239738	-3.239738
O	12.217442	3.239738	-1.250641
O	12.217442	1.250641	-3.239738
Sc	7.855883	-1.122595	-3.367785
Sc	12.344959	1.122595	-1.122595
Sc	14.589497	-1.122595	-1.122595
Sc	10.100421	1.122595	-3.367785
Ir	0.000000	-4.490380	-4.490380
Ir	2.244538	-6.735569	-6.735569
O	3.494325	-5.484928	-5.484928
O	-0.994752	-3.495831	-7.986211
O	0.994752	-5.484928	-7.986211
O	1.249787	-3.239738	-5.741021
O	5.483828	-3.495831	-5.484928
O	1.249787	-1.250641	-7.730118
O	3.239290	-1.250641	-5.741021
O	3.239290	-3.239738	-7.730118
Sc	-1.122269	-5.612974	-7.858164
Sc	3.366807	-3.367785	-5.612974
Sc	5.611345	-5.612974	-5.612974
Sc	1.122269	-3.367785	-7.858164
Ir	4.489076	0.000000	-4.490380
Ir	6.733614	-2.245190	-6.735569
O	7.983401	-0.994548	-5.484928
O	3.494325	0.994548	-7.986211
O	5.483828	-0.994548	-7.986211
O	5.738863	1.250641	-5.741021
O	9.972904	0.994548	-5.484928
O	5.738863	3.239738	-7.730118
O	7.728366	3.239738	-5.741021
O	7.728366	1.250641	-7.730118
Sc	3.366807	-1.122595	-7.858164
Sc	7.855883	1.122595	-5.612974
Sc	10.100421	-1.122595	-5.612974
Sc	5.611345	1.122595	-7.858164
