40

In	0.000000	0.000000	0.000000
O	2.296401	2.296401	0.000000
O	2.296401	0.000000	2.296401
O	0.000000	2.296401	2.296401
Pr	2.296401	2.296401	2.296401
In	0.000000	0.000000	4.592802
O	2.296401	2.296401	4.592802
O	2.296401	0.000000	6.889203
O	0.000000	2.296401	6.889203
Pr	2.296401	2.296401	6.889203
In	0.000000	4.592802	0.000000
O	2.296401	6.889203	0.000000
O	2.296401	4.592802	2.296401
O	0.000000	6.889203	2.296401
Pr	2.296401	6.889203	2.296401
In	0.000000	4.592802	4.592802
O	2.296401	6.889203	4.592802
O	2.296401	4.592802	6.889203
O	0.000000	6.889203	6.889203
Pr	2.296401	6.889203	6.889203
In	4.592802	0.000000	0.000000
O	6.889203	2.296401	0.000000
O	6.889203	0.000000	2.296401
O	4.592802	2.296401	2.296401
Pr	6.889203	2.296401	2.296401
In	4.592802	0.000000	4.592802
O	6.889203	2.296401	4.592802
O	6.889203	0.000000	6.889203
O	4.592802	2.296401	6.889203
Pr	6.889203	2.296401	6.889203
In	4.592802	4.592802	0.000000
O	6.889203	6.889203	0.000000
O	6.889203	4.592802	2.296401
O	4.592802	6.889203	2.296401
Pr	6.889203	6.889203	2.296401
In	4.592802	4.592802	4.592802
O	6.889203	6.889203	4.592802
O	6.889203	4.592802	6.889203
O	4.592802	6.889203	6.889203
Pr	6.889203	6.889203	6.889203
