40

Cd	0.000000	0.000000	0.000000
Li	1.879173	1.879173	1.879173
O	0.000000	1.879173	1.879173
O	1.879173	0.000000	1.879173
O	1.879173	1.879173	0.000000
Cd	0.000000	0.000000	3.758346
Li	1.879173	1.879173	5.637519
O	0.000000	1.879173	5.637519
O	1.879173	0.000000	5.637519
O	1.879173	1.879173	3.758346
Cd	0.000000	3.758346	0.000000
Li	1.879173	5.637519	1.879173
O	0.000000	5.637519	1.879173
O	1.879173	3.758346	1.879173
O	1.879173	5.637519	0.000000
Cd	0.000000	3.758346	3.758346
Li	1.879173	5.637519	5.637519
O	0.000000	5.637519	5.637519
O	1.879173	3.758346	5.637519
O	1.879173	5.637519	3.758346
Cd	3.758346	0.000000	0.000000
Li	5.637519	1.879173	1.879173
O	3.758346	1.879173	1.879173
O	5.637519	0.000000	1.879173
O	5.637519	1.879173	0.000000
Cd	3.758346	0.000000	3.758346
Li	5.637519	1.879173	5.637519
O	3.758346	1.879173	5.637519
O	5.637519	0.000000	5.637519
O	5.637519	1.879173	3.758346
Cd	3.758346	3.758346	0.000000
Li	5.637519	5.637519	1.879173
O	3.758346	5.637519	1.879173
O	5.637519	3.758346	1.879173
O	5.637519	5.637519	0.000000
Cd	3.758346	3.758346	3.758346
Li	5.637519	5.637519	5.637519
O	3.758346	5.637519	5.637519
O	5.637519	3.758346	5.637519
O	5.637519	5.637519	3.758346
