112

Nd	0.000000	0.000000	0.000000
Nd	2.279685	-2.280070	-2.280070
O	-0.974736	0.974081	-3.586059
O	3.584635	-0.974081	-0.974081
O	0.974736	-0.974081	-3.586059
O	1.304949	1.305989	-1.305989
O	5.534107	0.974081	-0.974081
O	1.304949	3.254161	-3.254161
O	3.254422	3.254161	-1.305989
O	3.254422	1.305989	-3.254161
Si	-1.139843	-1.140040	-3.420110
Si	5.699214	-1.140040	-1.140040
Si	1.139843	1.140040	-3.420110
Si	3.419528	1.140040	-1.140040
Nd	4.559368	4.560147	0.000000
Nd	6.839054	2.280077	-2.280070
O	3.584632	5.534228	-3.586059
O	8.144003	3.586066	-0.974081
O	5.534105	3.586066	-3.586059
O	5.864318	5.866136	-1.305989
O	10.093475	5.534228	-0.974081
O	5.864318	7.814308	-3.254161
O	7.813790	7.814308	-1.305989
O	7.813790	5.866136	-3.254161
Si	3.419526	3.420107	-3.420110
Si	10.258582	3.420107	-1.140040
Si	5.699211	5.700187	-3.420110
Si	7.978897	5.700187	-1.140040
Nd	-4.559368	0.000000	-4.560147
Nd	-2.279683	-2.280070	-6.840217
O	-5.534105	0.974081	-8.146206
O	-0.974734	-0.974081	-5.534228
O	-3.584632	-0.974081	-8.146206
O	-3.254419	1.305989	-5.866136
O	0.974738	0.974081	-5.534228
O	-3.254419	3.254161	-7.814308
O	-1.304947	3.254161	-5.866136
O	-1.304947	1.305989	-7.814308
Si	-5.699211	-1.140040	-7.980257
Si	1.139845	-1.140040	-5.700187
Si	-3.419526	1.140040	-7.980257
Si	-1.139840	1.140040	-5.700187
Nd	0.000000	4.560147	-4.560147
Nd	2.279685	2.280077	-6.840217
O	-0.974736	5.534228	-8.146206
O	3.584635	3.586066	-5.534228
O	0.974736	3.586066	-8.146206
O	1.304949	5.866136	-5.866136
O	5.534107	5.534228	-5.534228
O	1.304949	7.814308	-7.814308
O	3.254422	7.814308	-5.866136
O	3.254422	5.866136	-7.814308
Si	-1.139843	3.420107	-7.980257
Si	5.699214	3.420107	-5.700187
Si	1.139843	5.700187	-7.980257
Si	3.419528	5.700187	-5.700187
Nd	4.559368	-4.560147	0.000000
Nd	6.839054	-6.840217	-2.280070
O	3.584632	-3.586066	-3.586059
O	8.144003	-5.534228	-0.974081
O	5.534105	-5.534228	-3.586059
O	5.864318	-3.254158	-1.305989
O	10.093475	-3.586066	-0.974081
O	5.864318	-1.305986	-3.254161
O	7.813790	-1.305986	-1.305989
O	7.813790	-3.254158	-3.254161
Si	3.419526	-5.700187	-3.420110
Si	10.258582	-5.700187	-1.140040
Si	5.699211	-3.420107	-3.420110
Si	7.978897	-3.420107	-1.140040
Nd	9.118737	0.000000	0.000000
Nd	11.398422	-2.280070	-2.280070
O	8.144001	0.974081	-3.586059
O	12.703372	-0.974081	-0.974081
O	10.093473	-0.974081	-3.586059
O	10.423686	1.305989	-1.305989
O	14.652844	0.974081	-0.974081
O	10.423686	3.254161	-3.254161
O	12.373159	3.254161	-1.305989
O	12.373159	1.305989	-3.254161
Si	7.978894	-1.140040	-3.420110
Si	14.817950	-1.140040	-1.140040
Si	10.258580	1.140040	-3.420110
Si	12.538265	1.140040	-1.140040
Nd	0.000000	-4.560147	-4.560147
Nd	2.279685	-6.840217	-6.840217
O	-0.974736	-3.586066	-8.146206
O	3.584635	-5.534228	-5.534228
O	0.974736	-5.534228	-8.146206
O	1.304949	-3.254158	-5.866136
O	5.534107	-3.586066	-5.534228
O	1.304949	-1.305986	-7.814308
O	3.254422	-1.305986	-5.866136
O	3.254422	-3.254158	-7.814308
Si	-1.139843	-5.700187	-7.980257
Si	5.699214	-5.700187	-5.700187
Si	1.139843	-3.420107	-7.980257
Si	3.419528	-3.420107	-5.700187
Nd	4.559368	0.000000	-4.560147
Nd	6.839054	-2.280070	-6.840217
O	3.584632	0.974081	-8.146206
O	8.144003	-0.974081	-5.534228
O	5.534105	-0.974081	-8.146206
O	5.864318	1.305989	-5.866136
O	10.093475	0.974081	-5.534228
O	5.864318	3.254161	-7.814308
O	7.813790	3.254161	-5.866136
O	7.813790	1.305989	-7.814308
Si	3.419526	-1.140040	-7.980257
Si	10.258582	-1.140040	-5.700187
Si	5.699211	1.140040	-7.980257
Si	7.978897	1.140040	-5.700187
