40

Au	0.000000	0.000000	0.000000
F	1.931119	1.931119	1.931119
O	0.000000	1.931119	1.931119
O	1.931119	0.000000	1.931119
O	1.931119	1.931119	0.000000
Au	0.000000	0.000000	3.862239
F	1.931119	1.931119	5.793358
O	0.000000	1.931119	5.793358
O	1.931119	0.000000	5.793358
O	1.931119	1.931119	3.862239
Au	0.000000	3.862239	0.000000
F	1.931119	5.793358	1.931119
O	0.000000	5.793358	1.931119
O	1.931119	3.862239	1.931119
O	1.931119	5.793358	0.000000
Au	0.000000	3.862239	3.862239
F	1.931119	5.793358	5.793358
O	0.000000	5.793358	5.793358
O	1.931119	3.862239	5.793358
O	1.931119	5.793358	3.862239
Au	3.862239	0.000000	0.000000
F	5.793358	1.931119	1.931119
O	3.862239	1.931119	1.931119
O	5.793358	0.000000	1.931119
O	5.793358	1.931119	0.000000
Au	3.862239	0.000000	3.862239
F	5.793358	1.931119	5.793358
O	3.862239	1.931119	5.793358
O	5.793358	0.000000	5.793358
O	5.793358	1.931119	3.862239
Au	3.862239	3.862239	0.000000
F	5.793358	5.793358	1.931119
O	3.862239	5.793358	1.931119
O	5.793358	3.862239	1.931119
O	5.793358	5.793358	0.000000
Au	3.862239	3.862239	3.862239
F	5.793358	5.793358	5.793358
O	3.862239	5.793358	5.793358
O	5.793358	3.862239	5.793358
O	5.793358	5.793358	3.862239
