112

O	3.652186	-1.055910	-1.055910
O	-1.056092	1.055910	-3.653741
O	1.056092	-1.055910	-3.653741
O	1.298047	1.298916	-1.298916
O	5.764371	1.055910	-1.055910
O	1.298047	3.410736	-3.410736
O	3.410231	3.410736	-1.298916
O	3.410231	1.298916	-3.410736
Tc	0.000000	0.000000	0.000000
Tc	2.354139	-2.354826	-2.354826
Tm	-1.177070	-1.177413	-3.532239
Tm	3.531209	1.177413	-1.177413
Tm	5.885348	-1.177413	-1.177413
Tm	1.177070	1.177413	-3.532239
O	8.360464	3.653741	-1.055910
O	3.652186	5.765562	-3.653741
O	5.764371	3.653741	-3.653741
O	6.006325	6.008567	-1.298916
O	10.472649	5.765562	-1.055910
O	6.006325	8.120388	-3.410736
O	8.118510	8.120388	-1.298916
O	8.118510	6.008567	-3.410736
Tc	4.708278	4.709652	0.000000
Tc	7.062418	2.354826	-2.354826
Tm	3.531209	3.532239	-3.532239
Tm	8.239487	5.887065	-1.177413
Tm	10.593626	3.532239	-1.177413
Tm	5.885348	5.887065	-3.532239
O	-1.056092	-1.055910	-5.765562
O	-5.764371	1.055910	-8.363393
O	-3.652186	-1.055910	-8.363393
O	-3.410231	1.298916	-6.008567
O	1.056092	1.055910	-5.765562
O	-3.410231	3.410736	-8.120388
O	-1.298047	3.410736	-6.008567
O	-1.298047	1.298916	-8.120388
Tc	-4.708278	0.000000	-4.709652
Tc	-2.354139	-2.354826	-7.064478
Tm	-5.885348	-1.177413	-8.241890
Tm	-1.177070	1.177413	-5.887065
Tm	1.177070	-1.177413	-5.887065
Tm	-3.531209	1.177413	-8.241890
O	3.652186	3.653741	-5.765562
O	-1.056092	5.765562	-8.363393
O	1.056092	3.653741	-8.363393
O	1.298047	6.008567	-6.008567
O	5.764371	5.765562	-5.765562
O	1.298047	8.120388	-8.120388
O	3.410231	8.120388	-6.008567
O	3.410231	6.008567	-8.120388
Tc	0.000000	4.709652	-4.709652
Tc	2.354139	2.354826	-7.064478
Tm	-1.177070	3.532239	-8.241890
Tm	3.531209	5.887065	-5.887065
Tm	5.885348	3.532239	-5.887065
Tm	1.177070	5.887065	-8.241890
O	8.360464	-5.765562	-1.055910
O	3.652186	-3.653741	-3.653741
O	5.764371	-5.765562	-3.653741
O	6.006325	-3.410736	-1.298916
O	10.472649	-3.653741	-1.055910
O	6.006325	-1.298916	-3.410736
O	8.118510	-1.298916	-1.298916
O	8.118510	-3.410736	-3.410736
Tc	4.708278	-4.709652	0.000000
Tc	7.062418	-7.064478	-2.354826
Tm	3.531209	-5.887065	-3.532239
Tm	8.239487	-3.532239	-1.177413
Tm	10.593626	-5.887065	-1.177413
Tm	5.885348	-3.532239	-3.532239
O	13.068743	-1.055910	-1.055910
O	8.360464	1.055910	-3.653741
O	10.472649	-1.055910	-3.653741
O	10.714604	1.298916	-1.298916
O	15.180927	1.055910	-1.055910
O	10.714604	3.410736	-3.410736
O	12.826788	3.410736	-1.298916
O	12.826788	1.298916	-3.410736
Tc	9.416557	0.000000	0.000000
Tc	11.770696	-2.354826	-2.354826
Tm	8.239487	-1.177413	-3.532239
Tm	12.947766	1.177413	-1.177413
Tm	15.301905	-1.177413	-1.177413
Tm	10.593626	1.177413	-3.532239
O	3.652186	-5.765562	-5.765562
O	-1.056092	-3.653741	-8.363393
O	1.056092	-5.765562	-8.363393
O	1.298047	-3.410736	-6.008567
O	5.764371	-3.653741	-5.765562
O	1.298047	-1.298916	-8.120388
O	3.410231	-1.298916	-6.008567
O	3.410231	-3.410736	-8.120388
Tc	0.000000	-4.709652	-4.709652
Tc	2.354139	-7.064478	-7.064478
Tm	-1.177070	-5.887065	-8.241890
Tm	3.531209	-3.532239	-5.887065
Tm	5.885348	-5.887065	-5.887065
Tm	1.177070	-3.532239	-8.241890
O	8.360464	-1.055910	-5.765562
O	3.652186	1.055910	-8.363393
O	5.764371	-1.055910	-8.363393
O	6.006325	1.298916	-6.008567
O	10.472649	1.055910	-5.765562
O	6.006325	3.410736	-8.120388
O	8.118510	3.410736	-6.008567
O	8.118510	1.298916	-8.120388
Tc	4.708278	0.000000	-4.709652
Tc	7.062418	-2.354826	-7.064478
Tm	3.531209	-1.177413	-8.241890
Tm	8.239487	1.177413	-5.887065
Tm	10.593626	-1.177413	-5.887065
Tm	5.885348	1.177413	-8.241890
