40

Ag	2.057562	2.057562	2.057562
O	2.057562	2.057562	0.000000
O	2.057562	0.000000	2.057562
O	0.000000	2.057562	2.057562
Sr	0.000000	0.000000	0.000000
Ag	2.057562	2.057562	6.172685
O	2.057562	2.057562	4.115123
O	2.057562	0.000000	6.172685
O	0.000000	2.057562	6.172685
Sr	0.000000	0.000000	4.115123
Ag	2.057562	6.172685	2.057562
O	2.057562	6.172685	0.000000
O	2.057562	4.115123	2.057562
O	0.000000	6.172685	2.057562
Sr	0.000000	4.115123	0.000000
Ag	2.057562	6.172685	6.172685
O	2.057562	6.172685	4.115123
O	2.057562	4.115123	6.172685
O	0.000000	6.172685	6.172685
Sr	0.000000	4.115123	4.115123
Ag	6.172685	2.057562	2.057562
O	6.172685	2.057562	0.000000
O	6.172685	0.000000	2.057562
O	4.115123	2.057562	2.057562
Sr	4.115123	0.000000	0.000000
Ag	6.172685	2.057562	6.172685
O	6.172685	2.057562	4.115123
O	6.172685	0.000000	6.172685
O	4.115123	2.057562	6.172685
Sr	4.115123	0.000000	4.115123
Ag	6.172685	6.172685	2.057562
O	6.172685	6.172685	0.000000
O	6.172685	4.115123	2.057562
O	4.115123	6.172685	2.057562
Sr	4.115123	4.115123	0.000000
Ag	6.172685	6.172685	6.172685
O	6.172685	6.172685	4.115123
O	6.172685	4.115123	6.172685
O	4.115123	6.172685	6.172685
Sr	4.115123	4.115123	4.115123
