40

Ag	0.000000	0.000000	0.000000
O	2.253562	2.253562	0.000000
O	2.253562	0.000000	2.253562
O	0.000000	2.253562	2.253562
Sr	2.253562	2.253562	2.253562
Ag	0.000000	0.000000	4.507130
O	2.253562	2.253562	4.507130
O	2.253562	0.000000	6.760692
O	0.000000	2.253562	6.760692
Sr	2.253562	2.253562	6.760692
Ag	0.000000	4.507130	0.000000
O	2.253562	6.760692	0.000000
O	2.253562	4.507130	2.253562
O	0.000000	6.760692	2.253562
Sr	2.253562	6.760692	2.253562
Ag	0.000000	4.507130	4.507130
O	2.253562	6.760692	4.507130
O	2.253562	4.507130	6.760692
O	0.000000	6.760692	6.760692
Sr	2.253562	6.760692	6.760692
Ag	4.507130	0.000000	0.000000
O	6.760692	2.253562	0.000000
O	6.760692	0.000000	2.253562
O	4.507130	2.253562	2.253562
Sr	6.760692	2.253562	2.253562
Ag	4.507130	0.000000	4.507130
O	6.760692	2.253562	4.507130
O	6.760692	0.000000	6.760692
O	4.507130	2.253562	6.760692
Sr	6.760692	2.253562	6.760692
Ag	4.507130	4.507130	0.000000
O	6.760692	6.760692	0.000000
O	6.760692	4.507130	2.253562
O	4.507130	6.760692	2.253562
Sr	6.760692	6.760692	2.253562
Ag	4.507130	4.507130	4.507130
O	6.760692	6.760692	4.507130
O	6.760692	4.507130	6.760692
O	4.507130	6.760692	6.760692
Sr	6.760692	6.760692	6.760692
