112

Cd	0.000000	0.000000	0.000000
Cd	2.194165	-2.194177	-2.194177
O	3.433384	-0.954177	-0.954177
O	-0.954946	0.954177	-3.434177
O	0.954946	-0.954177	-3.434177
O	1.239219	1.240000	-1.240000
O	5.343276	0.954177	-0.954177
O	1.239219	3.148355	-3.148355
O	3.149111	3.148355	-1.240000
O	3.149111	1.240000	-3.148355
Zn	-1.097082	-1.097089	-3.291266
Zn	3.291247	1.097089	-1.097089
Zn	5.485412	-1.097089	-1.097089
Zn	1.097082	1.097089	-3.291266
Cd	4.388330	4.388355	0.000000
Cd	6.582495	2.194177	-2.194177
O	7.821714	3.434177	-0.954177
O	3.433384	5.342532	-3.434177
O	5.343276	3.434177	-3.434177
O	5.627549	5.628355	-1.240000
O	9.731606	5.342532	-0.954177
O	5.627549	7.536709	-3.148355
O	7.537441	7.536709	-1.240000
O	7.537441	5.628355	-3.148355
Zn	3.291247	3.291266	-3.291266
Zn	7.679577	5.485443	-1.097089
Zn	9.873742	3.291266	-1.097089
Zn	5.485412	5.485443	-3.291266
Cd	-4.388330	0.000000	-4.388355
Cd	-2.194165	-2.194177	-6.582532
O	-0.954946	-0.954177	-5.342532
O	-5.343276	0.954177	-7.822532
O	-3.433384	-0.954177	-7.822532
O	-3.149111	1.240000	-5.628355
O	0.954946	0.954177	-5.342532
O	-3.149111	3.148355	-7.536709
O	-1.239219	3.148355	-5.628355
O	-1.239219	1.240000	-7.536709
Zn	-5.485412	-1.097089	-7.679621
Zn	-1.097082	1.097089	-5.485443
Zn	1.097082	-1.097089	-5.485443
Zn	-3.291247	1.097089	-7.679621
Cd	0.000000	4.388355	-4.388355
Cd	2.194165	2.194177	-6.582532
O	3.433384	3.434177	-5.342532
O	-0.954946	5.342532	-7.822532
O	0.954946	3.434177	-7.822532
O	1.239219	5.628355	-5.628355
O	5.343276	5.342532	-5.342532
O	1.239219	7.536709	-7.536709
O	3.149111	7.536709	-5.628355
O	3.149111	5.628355	-7.536709
Zn	-1.097082	3.291266	-7.679621
Zn	3.291247	5.485443	-5.485443
Zn	5.485412	3.291266	-5.485443
Zn	1.097082	5.485443	-7.679621
Cd	4.388330	-4.388355	0.000000
Cd	6.582495	-6.582532	-2.194177
O	7.821714	-5.342532	-0.954177
O	3.433384	-3.434177	-3.434177
O	5.343276	-5.342532	-3.434177
O	5.627549	-3.148354	-1.240000
O	9.731606	-3.434177	-0.954177
O	5.627549	-1.240000	-3.148355
O	7.537441	-1.240000	-1.240000
O	7.537441	-3.148354	-3.148355
Zn	3.291247	-5.485443	-3.291266
Zn	7.679577	-3.291266	-1.097089
Zn	9.873742	-5.485443	-1.097089
Zn	5.485412	-3.291266	-3.291266
Cd	8.776660	0.000000	0.000000
Cd	10.970825	-2.194177	-2.194177
O	12.210044	-0.954177	-0.954177
O	7.821714	0.954177	-3.434177
O	9.731606	-0.954177	-3.434177
O	10.015879	1.240000	-1.240000
O	14.119936	0.954177	-0.954177
O	10.015879	3.148355	-3.148355
O	11.925771	3.148355	-1.240000
O	11.925771	1.240000	-3.148355
Zn	7.679577	-1.097089	-3.291266
Zn	12.067907	1.097089	-1.097089
Zn	14.262072	-1.097089	-1.097089
Zn	9.873742	1.097089	-3.291266
Cd	0.000000	-4.388355	-4.388355
Cd	2.194165	-6.582532	-6.582532
O	3.433384	-5.342532	-5.342532
O	-0.954946	-3.434177	-7.822532
O	0.954946	-5.342532	-7.822532
O	1.239219	-3.148354	-5.628355
O	5.343276	-3.434177	-5.342532
O	1.239219	-1.240000	-7.536709
O	3.149111	-1.240000	-5.628355
O	3.149111	-3.148354	-7.536709
Zn	-1.097082	-5.485443	-7.679621
Zn	3.291247	-3.291266	-5.485443
Zn	5.485412	-5.485443	-5.485443
Zn	1.097082	-3.291266	-7.679621
Cd	4.388330	0.000000	-4.388355
Cd	6.582495	-2.194177	-6.582532
O	7.821714	-0.954177	-5.342532
O	3.433384	0.954177	-7.822532
O	5.343276	-0.954177	-7.822532
O	5.627549	1.240000	-5.628355
O	9.731606	0.954177	-5.342532
O	5.627549	3.148355	-7.536709
O	7.537441	3.148355	-5.628355
O	7.537441	1.240000	-7.536709
Zn	3.291247	-1.097089	-7.679621
Zn	7.679577	1.097089	-5.485443
Zn	9.873742	-1.097089	-5.485443
Zn	5.485412	1.097089	-7.679621
