40

Co	1.865675	1.865675	1.865675
Li	0.000000	0.000000	0.000000
O	0.000000	1.865675	1.865675
O	1.865675	0.000000	1.865675
O	1.865675	1.865675	0.000000
Co	1.865675	1.865675	5.597024
Li	0.000000	0.000000	3.731350
O	0.000000	1.865675	5.597024
O	1.865675	0.000000	5.597024
O	1.865675	1.865675	3.731350
Co	1.865675	5.597024	1.865675
Li	0.000000	3.731350	0.000000
O	0.000000	5.597024	1.865675
O	1.865675	3.731350	1.865675
O	1.865675	5.597024	0.000000
Co	1.865675	5.597024	5.597024
Li	0.000000	3.731350	3.731350
O	0.000000	5.597024	5.597024
O	1.865675	3.731350	5.597024
O	1.865675	5.597024	3.731350
Co	5.597024	1.865675	1.865675
Li	3.731350	0.000000	0.000000
O	3.731350	1.865675	1.865675
O	5.597024	0.000000	1.865675
O	5.597024	1.865675	0.000000
Co	5.597024	1.865675	5.597024
Li	3.731350	0.000000	3.731350
O	3.731350	1.865675	5.597024
O	5.597024	0.000000	5.597024
O	5.597024	1.865675	3.731350
Co	5.597024	5.597024	1.865675
Li	3.731350	3.731350	0.000000
O	3.731350	5.597024	1.865675
O	5.597024	3.731350	1.865675
O	5.597024	5.597024	0.000000
Co	5.597024	5.597024	5.597024
Li	3.731350	3.731350	3.731350
O	3.731350	5.597024	5.597024
O	5.597024	3.731350	5.597024
O	5.597024	5.597024	3.731350
