40

Co	0.000000	0.000000	0.000000
Li	1.769111	1.769111	1.769111
O	1.769111	1.769111	0.000000
O	1.769111	0.000000	1.769111
O	0.000000	1.769111	1.769111
Co	0.000000	0.000000	3.538225
Li	1.769111	1.769111	5.307335
O	1.769111	1.769111	3.538225
O	1.769111	0.000000	5.307335
O	0.000000	1.769111	5.307335
Co	0.000000	3.538225	0.000000
Li	1.769111	5.307335	1.769111
O	1.769111	5.307335	0.000000
O	1.769111	3.538225	1.769111
O	0.000000	5.307335	1.769111
Co	0.000000	3.538225	3.538225
Li	1.769111	5.307335	5.307335
O	1.769111	5.307335	3.538225
O	1.769111	3.538225	5.307335
O	0.000000	5.307335	5.307335
Co	3.538225	0.000000	0.000000
Li	5.307335	1.769111	1.769111
O	5.307335	1.769111	0.000000
O	5.307335	0.000000	1.769111
O	3.538225	1.769111	1.769111
Co	3.538225	0.000000	3.538225
Li	5.307335	1.769111	5.307335
O	5.307335	1.769111	3.538225
O	5.307335	0.000000	5.307335
O	3.538225	1.769111	5.307335
Co	3.538225	3.538225	0.000000
Li	5.307335	5.307335	1.769111
O	5.307335	5.307335	0.000000
O	5.307335	3.538225	1.769111
O	3.538225	5.307335	1.769111
Co	3.538225	3.538225	3.538225
Li	5.307335	5.307335	5.307335
O	5.307335	5.307335	3.538225
O	5.307335	3.538225	5.307335
O	3.538225	5.307335	5.307335
