112

Hf	0.000000	0.000000	0.000000
Hf	2.254373	-2.254586	-2.254586
O	3.388393	-1.119849	-1.119849
O	-1.120354	1.119849	-3.389324
O	1.120354	-1.119849	-3.389324
O	1.134019	1.134738	-1.134738
O	5.629101	1.119849	-1.119849
O	1.134020	3.374435	-3.374435
O	3.374727	3.374435	-1.134738
O	3.374727	1.134738	-3.374435
Pd	-1.127187	-1.127293	-3.381880
Pd	3.381560	1.127293	-1.127293
Pd	5.635933	-1.127293	-1.127293
Pd	1.127187	1.127293	-3.381880
Hf	4.508747	4.509173	0.000000
Hf	6.763120	2.254586	-2.254586
O	7.897140	3.389324	-1.119849
O	3.388393	5.629021	-3.389324
O	5.629101	3.389324	-3.389324
O	5.642766	5.643911	-1.134738
O	10.137847	5.629021	-1.119849
O	5.642766	7.883608	-3.374435
O	7.883474	7.883608	-1.134738
O	7.883474	5.643911	-3.374435
Pd	3.381560	3.381880	-3.381880
Pd	7.890307	5.636466	-1.127293
Pd	10.144680	3.381880	-1.127293
Pd	5.635933	5.636466	-3.381880
Hf	-4.508747	0.000000	-4.509173
Hf	-2.254373	-2.254586	-6.763759
O	-1.120354	-1.119849	-5.629021
O	-5.629101	1.119849	-7.898497
O	-3.388393	-1.119849	-7.898497
O	-3.374727	1.134738	-5.643911
O	1.120354	1.119849	-5.629021
O	-3.374727	3.374435	-7.883608
O	-1.134020	3.374435	-5.643911
O	-1.134019	1.134738	-7.883608
Pd	-5.635933	-1.127293	-7.891052
Pd	-1.127187	1.127293	-5.636466
Pd	1.127187	-1.127293	-5.636466
Pd	-3.381560	1.127293	-7.891052
Hf	0.000000	4.509173	-4.509173
Hf	2.254373	2.254586	-6.763759
O	3.388393	3.389324	-5.629021
O	-1.120354	5.629021	-7.898497
O	1.120354	3.389324	-7.898497
O	1.134019	5.643911	-5.643911
O	5.629101	5.629021	-5.629021
O	1.134020	7.883608	-7.883608
O	3.374727	7.883608	-5.643911
O	3.374727	5.643911	-7.883608
Pd	-1.127187	3.381880	-7.891052
Pd	3.381560	5.636466	-5.636466
Pd	5.635933	3.381880	-5.636466
Pd	1.127187	5.636466	-7.891052
Hf	4.508747	-4.509173	0.000000
Hf	6.763120	-6.763759	-2.254586
O	7.897140	-5.629021	-1.119849
O	3.388393	-3.389324	-3.389324
O	5.629101	-5.629021	-3.389324
O	5.642766	-3.374435	-1.134738
O	10.137847	-3.389324	-1.119849
O	5.642766	-1.134738	-3.374435
O	7.883474	-1.134738	-1.134738
O	7.883474	-3.374435	-3.374435
Pd	3.381560	-5.636466	-3.381880
Pd	7.890307	-3.381880	-1.127293
Pd	10.144680	-5.636466	-1.127293
Pd	5.635933	-3.381880	-3.381880
Hf	9.017494	0.000000	0.000000
Hf	11.271867	-2.254586	-2.254586
O	12.405886	-1.119849	-1.119849
O	7.897140	1.119849	-3.389324
O	10.137847	-1.119849	-3.389324
O	10.151513	1.134738	-1.134738
O	14.646594	1.119849	-1.119849
O	10.151513	3.374435	-3.374435
O	12.392221	3.374435	-1.134738
O	12.392221	1.134738	-3.374435
Pd	7.890307	-1.127293	-3.381880
Pd	12.399054	1.127293	-1.127293
Pd	14.653427	-1.127293	-1.127293
Pd	10.144680	1.127293	-3.381880
Hf	0.000000	-4.509173	-4.509173
Hf	2.254373	-6.763759	-6.763759
O	3.388393	-5.629021	-5.629021
O	-1.120354	-3.389324	-7.898497
O	1.120354	-5.629021	-7.898497
O	1.134019	-3.374435	-5.643911
O	5.629101	-3.389324	-5.629021
O	1.134020	-1.134738	-7.883608
O	3.374727	-1.134738	-5.643911
O	3.374727	-3.374435	-7.883608
Pd	-1.127187	-5.636466	-7.891052
Pd	3.381560	-3.381880	-5.636466
Pd	5.635933	-5.636466	-5.636466
Pd	1.127187	-3.381880	-7.891052
Hf	4.508747	0.000000	-4.509173
Hf	6.763120	-2.254586	-6.763759
O	7.897140	-1.119849	-5.629021
O	3.388393	1.119849	-7.898497
O	5.629101	-1.119849	-7.898497
O	5.642766	1.134738	-5.643911
O	10.137847	1.119849	-5.629021
O	5.642766	3.374435	-7.883608
O	7.883474	3.374435	-5.643911
O	7.883474	1.134738	-7.883608
Pd	3.381560	-1.127293	-7.891052
Pd	7.890307	1.127293	-5.636466
Pd	10.144680	-1.127293	-5.636466
Pd	5.635933	1.127293	-7.891052
