40

Cr	0.000000	0.000000	0.000000
O	1.955397	1.955397	0.000000
O	1.955397	0.000000	1.955397
O	0.000000	1.955397	1.955397
Re	1.955397	1.955397	1.955397
Cr	0.000000	0.000000	3.910794
O	1.955397	1.955397	3.910794
O	1.955397	0.000000	5.866191
O	0.000000	1.955397	5.866191
Re	1.955397	1.955397	5.866191
Cr	0.000000	3.910794	0.000000
O	1.955397	5.866191	0.000000
O	1.955397	3.910794	1.955397
O	0.000000	5.866191	1.955397
Re	1.955397	5.866191	1.955397
Cr	0.000000	3.910794	3.910794
O	1.955397	5.866191	3.910794
O	1.955397	3.910794	5.866191
O	0.000000	5.866191	5.866191
Re	1.955397	5.866191	5.866191
Cr	3.910794	0.000000	0.000000
O	5.866191	1.955397	0.000000
O	5.866191	0.000000	1.955397
O	3.910794	1.955397	1.955397
Re	5.866191	1.955397	1.955397
Cr	3.910794	0.000000	3.910794
O	5.866191	1.955397	3.910794
O	5.866191	0.000000	5.866191
O	3.910794	1.955397	5.866191
Re	5.866191	1.955397	5.866191
Cr	3.910794	3.910794	0.000000
O	5.866191	5.866191	0.000000
O	5.866191	3.910794	1.955397
O	3.910794	5.866191	1.955397
Re	5.866191	5.866191	1.955397
Cr	3.910794	3.910794	3.910794
O	5.866191	5.866191	3.910794
O	5.866191	3.910794	5.866191
O	3.910794	5.866191	5.866191
Re	5.866191	5.866191	5.866191
