112

Ga	0.000000	0.000000	0.000000
Ga	2.412582	-2.412972	-2.412972
O	3.521156	-1.303859	-1.303859
O	-1.304008	1.303859	-3.522085
O	1.304008	-1.303859	-3.522085
O	1.108574	1.109113	-1.109113
O	6.129172	1.303859	-1.303859
O	1.108574	3.716831	-3.716831
O	3.716590	3.716831	-1.109113
O	3.716590	1.109113	-3.716831
Sr	-1.206291	-1.206486	-3.619458
Sr	3.618873	1.206486	-1.206486
Sr	6.031455	-1.206486	-1.206486
Sr	1.206291	1.206486	-3.619458
Ga	4.825164	4.825944	0.000000
Ga	7.237746	2.412972	-2.412972
O	8.346320	3.522085	-1.303859
O	3.521156	6.129803	-3.522085
O	6.129172	3.522085	-3.522085
O	5.933738	5.935057	-1.109113
O	10.954336	6.129803	-1.303859
O	5.933738	8.542775	-3.716831
O	8.541754	8.542775	-1.109113
O	8.541754	5.935057	-3.716831
Sr	3.618873	3.619458	-3.619458
Sr	8.444037	6.032430	-1.206486
Sr	10.856619	3.619458	-1.206486
Sr	6.031455	6.032430	-3.619458
Ga	-4.825164	0.000000	-4.825944
Ga	-2.412582	-2.412972	-7.238916
O	-1.304008	-1.303859	-6.129803
O	-6.129172	1.303859	-8.348029
O	-3.521156	-1.303859	-8.348029
O	-3.716590	1.109113	-5.935057
O	1.304008	1.303859	-6.129803
O	-3.716590	3.716831	-8.542775
O	-1.108574	3.716831	-5.935057
O	-1.108574	1.109113	-8.542775
Sr	-6.031455	-1.206486	-8.445402
Sr	-1.206291	1.206486	-6.032430
Sr	1.206291	-1.206486	-6.032430
Sr	-3.618873	1.206486	-8.445402
Ga	0.000000	4.825944	-4.825944
Ga	2.412582	2.412972	-7.238916
O	3.521156	3.522085	-6.129803
O	-1.304008	6.129803	-8.348029
O	1.304008	3.522085	-8.348029
O	1.108574	5.935057	-5.935057
O	6.129172	6.129803	-6.129803
O	1.108574	8.542775	-8.542775
O	3.716590	8.542775	-5.935057
O	3.716590	5.935057	-8.542775
Sr	-1.206291	3.619458	-8.445402
Sr	3.618873	6.032430	-6.032430
Sr	6.031455	3.619458	-6.032430
Sr	1.206291	6.032430	-8.445402
Ga	4.825164	-4.825944	0.000000
Ga	7.237746	-7.238916	-2.412972
O	8.346320	-6.129803	-1.303859
O	3.521156	-3.522085	-3.522085
O	6.129172	-6.129803	-3.522085
O	5.933738	-3.716831	-1.109113
O	10.954336	-3.522085	-1.303859
O	5.933738	-1.109113	-3.716831
O	8.541754	-1.109113	-1.109113
O	8.541754	-3.716831	-3.716831
Sr	3.618873	-6.032430	-3.619458
Sr	8.444037	-3.619458	-1.206486
Sr	10.856619	-6.032430	-1.206486
Sr	6.031455	-3.619458	-3.619458
Ga	9.650328	0.000000	0.000000
Ga	12.062910	-2.412972	-2.412972
O	13.171484	-1.303859	-1.303859
O	8.346320	1.303859	-3.522085
O	10.954336	-1.303859	-3.522085
O	10.758902	1.109113	-1.109113
O	15.779500	1.303859	-1.303859
O	10.758902	3.716831	-3.716831
O	13.366918	3.716831	-1.109113
O	13.366918	1.109113	-3.716831
Sr	8.444037	-1.206486	-3.619458
Sr	13.269201	1.206486	-1.206486
Sr	15.681783	-1.206486	-1.206486
Sr	10.856619	1.206486	-3.619458
Ga	0.000000	-4.825944	-4.825944
Ga	2.412582	-7.238916	-7.238916
O	3.521156	-6.129803	-6.129803
O	-1.304008	-3.522085	-8.348029
O	1.304008	-6.129803	-8.348029
O	1.108574	-3.716831	-5.935057
O	6.129172	-3.522085	-6.129803
O	1.108574	-1.109113	-8.542775
O	3.716590	-1.109113	-5.935057
O	3.716590	-3.716831	-8.542775
Sr	-1.206291	-6.032430	-8.445402
Sr	3.618873	-3.619458	-6.032430
Sr	6.031455	-6.032430	-6.032430
Sr	1.206291	-3.619458	-8.445402
Ga	4.825164	0.000000	-4.825944
Ga	7.237746	-2.412972	-7.238916
O	8.346320	-1.303859	-6.129803
O	3.521156	1.303859	-8.348029
O	6.129172	-1.303859	-8.348029
O	5.933738	1.109113	-5.935057
O	10.954336	1.303859	-6.129803
O	5.933738	3.716831	-8.542775
O	8.541754	3.716831	-5.935057
O	8.541754	1.109113	-8.542775
Sr	3.618873	-1.206486	-8.445402
Sr	8.444037	1.206486	-6.032430
Sr	10.856619	-1.206486	-6.032430
Sr	6.031455	1.206486	-8.445402
