40

Cd	0.000000	0.000000	0.000000
O	2.089231	2.089231	0.000000
O	2.089231	0.000000	2.089231
O	0.000000	2.089231	2.089231
Yb	2.089231	2.089231	2.089231
Cd	0.000000	0.000000	4.178462
O	2.089231	2.089231	4.178462
O	2.089231	0.000000	6.267693
O	0.000000	2.089231	6.267693
Yb	2.089231	2.089231	6.267693
Cd	0.000000	4.178462	0.000000
O	2.089231	6.267693	0.000000
O	2.089231	4.178462	2.089231
O	0.000000	6.267693	2.089231
Yb	2.089231	6.267693	2.089231
Cd	0.000000	4.178462	4.178462
O	2.089231	6.267693	4.178462
O	2.089231	4.178462	6.267693
O	0.000000	6.267693	6.267693
Yb	2.089231	6.267693	6.267693
Cd	4.178462	0.000000	0.000000
O	6.267693	2.089231	0.000000
O	6.267693	0.000000	2.089231
O	4.178462	2.089231	2.089231
Yb	6.267693	2.089231	2.089231
Cd	4.178462	0.000000	4.178462
O	6.267693	2.089231	4.178462
O	6.267693	0.000000	6.267693
O	4.178462	2.089231	6.267693
Yb	6.267693	2.089231	6.267693
Cd	4.178462	4.178462	0.000000
O	6.267693	6.267693	0.000000
O	6.267693	4.178462	2.089231
O	4.178462	6.267693	2.089231
Yb	6.267693	6.267693	2.089231
Cd	4.178462	4.178462	4.178462
O	6.267693	6.267693	4.178462
O	6.267693	4.178462	6.267693
O	4.178462	6.267693	6.267693
Yb	6.267693	6.267693	6.267693
