40

Be	0.000000	0.000000	0.000000
Ga	1.866990	1.866990	1.866990
O	1.866990	0.000000	1.866990
O	0.000000	1.866990	1.866990
O	1.866990	1.866990	0.000000
Be	0.000000	0.000000	3.733974
Ga	1.866990	1.866990	5.600964
O	1.866990	0.000000	5.600964
O	0.000000	1.866990	5.600964
O	1.866990	1.866990	3.733974
Be	0.000000	3.733974	0.000000
Ga	1.866990	5.600964	1.866990
O	1.866990	3.733974	1.866990
O	0.000000	5.600964	1.866990
O	1.866990	5.600964	0.000000
Be	0.000000	3.733974	3.733974
Ga	1.866990	5.600964	5.600964
O	1.866990	3.733974	5.600964
O	0.000000	5.600964	5.600964
O	1.866990	5.600964	3.733974
Be	3.733974	0.000000	0.000000
Ga	5.600964	1.866990	1.866990
O	5.600964	0.000000	1.866990
O	3.733974	1.866990	1.866990
O	5.600964	1.866990	0.000000
Be	3.733974	0.000000	3.733974
Ga	5.600964	1.866990	5.600964
O	5.600964	0.000000	5.600964
O	3.733974	1.866990	5.600964
O	5.600964	1.866990	3.733974
Be	3.733974	3.733974	0.000000
Ga	5.600964	5.600964	1.866990
O	5.600964	3.733974	1.866990
O	3.733974	5.600964	1.866990
O	5.600964	5.600964	0.000000
Be	3.733974	3.733974	3.733974
Ga	5.600964	5.600964	5.600964
O	5.600964	3.733974	5.600964
O	3.733974	5.600964	5.600964
O	5.600964	5.600964	3.733974
