40

Cs	0.000000	0.000000	0.000000
O	0.000000	2.099724	2.099724
O	2.099724	0.000000	2.099724
O	2.099724	2.099724	0.000000
Sb	2.099724	2.099724	2.099724
Cs	0.000000	0.000000	4.199447
O	0.000000	2.099724	6.299171
O	2.099724	0.000000	6.299171
O	2.099724	2.099724	4.199447
Sb	2.099724	2.099724	6.299171
Cs	0.000000	4.199447	0.000000
O	0.000000	6.299171	2.099724
O	2.099724	4.199447	2.099724
O	2.099724	6.299171	0.000000
Sb	2.099724	6.299171	2.099724
Cs	0.000000	4.199447	4.199447
O	0.000000	6.299171	6.299171
O	2.099724	4.199447	6.299171
O	2.099724	6.299171	4.199447
Sb	2.099724	6.299171	6.299171
Cs	4.199447	0.000000	0.000000
O	4.199447	2.099724	2.099724
O	6.299171	0.000000	2.099724
O	6.299171	2.099724	0.000000
Sb	6.299171	2.099724	2.099724
Cs	4.199447	0.000000	4.199447
O	4.199447	2.099724	6.299171
O	6.299171	0.000000	6.299171
O	6.299171	2.099724	4.199447
Sb	6.299171	2.099724	6.299171
Cs	4.199447	4.199447	0.000000
O	4.199447	6.299171	2.099724
O	6.299171	4.199447	2.099724
O	6.299171	6.299171	0.000000
Sb	6.299171	6.299171	2.099724
Cs	4.199447	4.199447	4.199447
O	4.199447	6.299171	6.299171
O	6.299171	4.199447	6.299171
O	6.299171	6.299171	4.199447
Sb	6.299171	6.299171	6.299171
