40

Cs	2.253480	2.253480	2.253480
O	2.253480	2.253480	0.000000
O	0.000000	2.253480	2.253480
O	2.253480	0.000000	2.253480
Sb	0.000000	0.000000	0.000000
Cs	2.253480	2.253480	6.760437
O	2.253480	2.253480	4.506957
O	0.000000	2.253480	6.760437
O	2.253480	0.000000	6.760437
Sb	0.000000	0.000000	4.506957
Cs	2.253480	6.760437	2.253480
O	2.253480	6.760437	0.000000
O	0.000000	6.760437	2.253480
O	2.253480	4.506957	2.253480
Sb	0.000000	4.506957	0.000000
Cs	2.253480	6.760437	6.760437
O	2.253480	6.760437	4.506957
O	0.000000	6.760437	6.760437
O	2.253480	4.506957	6.760437
Sb	0.000000	4.506957	4.506957
Cs	6.760437	2.253480	2.253480
O	6.760437	2.253480	0.000000
O	4.506957	2.253480	2.253480
O	6.760437	0.000000	2.253480
Sb	4.506957	0.000000	0.000000
Cs	6.760437	2.253480	6.760437
O	6.760437	2.253480	4.506957
O	4.506957	2.253480	6.760437
O	6.760437	0.000000	6.760437
Sb	4.506957	0.000000	4.506957
Cs	6.760437	6.760437	2.253480
O	6.760437	6.760437	0.000000
O	4.506957	6.760437	2.253480
O	6.760437	4.506957	2.253480
Sb	4.506957	4.506957	0.000000
Cs	6.760437	6.760437	6.760437
O	6.760437	6.760437	4.506957
O	4.506957	6.760437	6.760437
O	6.760437	4.506957	6.760437
Sb	4.506957	4.506957	4.506957
