40

Au	2.031014	2.031014	2.031014
O	0.000000	2.031014	2.031014
O	2.031014	0.000000	2.031014
O	2.031014	2.031014	0.000000
Pd	0.000000	0.000000	0.000000
Au	2.031014	2.031014	6.093042
O	0.000000	2.031014	6.093042
O	2.031014	0.000000	6.093042
O	2.031014	2.031014	4.062028
Pd	0.000000	0.000000	4.062028
Au	2.031014	6.093042	2.031014
O	0.000000	6.093042	2.031014
O	2.031014	4.062028	2.031014
O	2.031014	6.093042	0.000000
Pd	0.000000	4.062028	0.000000
Au	2.031014	6.093042	6.093042
O	0.000000	6.093042	6.093042
O	2.031014	4.062028	6.093042
O	2.031014	6.093042	4.062028
Pd	0.000000	4.062028	4.062028
Au	6.093042	2.031014	2.031014
O	4.062028	2.031014	2.031014
O	6.093042	0.000000	2.031014
O	6.093042	2.031014	0.000000
Pd	4.062028	0.000000	0.000000
Au	6.093042	2.031014	6.093042
O	4.062028	2.031014	6.093042
O	6.093042	0.000000	6.093042
O	6.093042	2.031014	4.062028
Pd	4.062028	0.000000	4.062028
Au	6.093042	6.093042	2.031014
O	4.062028	6.093042	2.031014
O	6.093042	4.062028	2.031014
O	6.093042	6.093042	0.000000
Pd	4.062028	4.062028	0.000000
Au	6.093042	6.093042	6.093042
O	4.062028	6.093042	6.093042
O	6.093042	4.062028	6.093042
O	6.093042	6.093042	4.062028
Pd	4.062028	4.062028	4.062028
