112

K	0.000000	0.000000	0.000000
K	2.238780	-2.239303	-2.239303
O	-0.901729	0.901503	-3.577102
O	3.575822	-0.901503	-0.901503
O	0.901729	-0.901503	-3.577102
O	1.337051	1.337799	-1.337799
O	5.379290	0.901503	-0.901503
O	1.337051	3.140816	-3.140816
O	3.140509	3.140816	-1.337799
O	3.140509	1.337799	-3.140816
Ti	-1.119385	-1.119656	-3.358959
Ti	1.119385	1.119656	-3.358959
Ti	5.596946	-1.119656	-1.119656
Ti	3.358166	1.119656	-1.119656
K	4.477556	4.478614	0.000000
K	6.716336	2.239311	-2.239303
O	3.575827	5.380118	-3.577102
O	8.053378	3.577111	-0.901503
O	5.379285	3.577111	-3.577102
O	5.814607	5.816414	-1.337799
O	9.856846	5.380118	-0.901503
O	5.814607	7.619431	-3.140816
O	7.618065	7.619431	-1.337799
O	7.618066	5.816414	-3.140816
Ti	3.358171	3.358958	-3.358959
Ti	5.596941	5.598271	-3.358959
Ti	10.074502	3.358958	-1.119656
Ti	7.835722	5.598271	-1.119656
K	-4.477556	0.000000	-4.478614
K	-2.238776	-2.239303	-6.717917
O	-5.379285	0.901503	-8.055717
O	-0.901734	-0.901503	-5.380118
O	-3.575827	-0.901503	-8.055717
O	-3.140505	1.337799	-5.816414
O	0.901734	0.901503	-5.380118
O	-3.140505	3.140816	-7.619431
O	-1.337047	3.140816	-5.816414
O	-1.337047	1.337799	-7.619431
Ti	-5.596941	-1.119656	-7.837574
Ti	-3.358171	1.119656	-7.837574
Ti	1.119390	-1.119656	-5.598271
Ti	-1.119391	1.119656	-5.598271
K	0.000000	4.478614	-4.478614
K	2.238780	2.239311	-6.717917
O	-0.901729	5.380118	-8.055717
O	3.575822	3.577111	-5.380118
O	0.901729	3.577111	-8.055717
O	1.337051	5.816414	-5.816414
O	5.379290	5.380118	-5.380118
O	1.337051	7.619431	-7.619431
O	3.140509	7.619431	-5.816414
O	3.140509	5.816414	-7.619431
Ti	-1.119385	3.358958	-7.837574
Ti	1.119385	5.598271	-7.837574
Ti	5.596946	3.358958	-5.598271
Ti	3.358166	5.598271	-5.598271
K	4.477556	-4.478614	0.000000
K	6.716336	-6.717917	-2.239303
O	3.575827	-3.577111	-3.577102
O	8.053378	-5.380118	-0.901503
O	5.379285	-5.380118	-3.577102
O	5.814607	-3.140815	-1.337799
O	9.856846	-3.577111	-0.901503
O	5.814607	-1.337798	-3.140816
O	7.618065	-1.337798	-1.337799
O	7.618066	-3.140815	-3.140816
Ti	3.358171	-5.598271	-3.358959
Ti	5.596941	-3.358958	-3.358959
Ti	10.074502	-5.598271	-1.119656
Ti	7.835722	-3.358958	-1.119656
K	8.955112	0.000000	0.000000
K	11.193893	-2.239303	-2.239303
O	8.053383	0.901503	-3.577102
O	12.530934	-0.901503	-0.901503
O	9.856841	-0.901503	-3.577102
O	10.292163	1.337799	-1.337799
O	14.334402	0.901503	-0.901503
O	10.292163	3.140816	-3.140816
O	12.095622	3.140816	-1.337799
O	12.095622	1.337799	-3.140816
Ti	7.835727	-1.119656	-3.358959
Ti	10.074497	1.119656	-3.358959
Ti	14.552058	-1.119656	-1.119656
Ti	12.313278	1.119656	-1.119656
K	0.000000	-4.478614	-4.478614
K	2.238780	-6.717917	-6.717917
O	-0.901729	-3.577111	-8.055717
O	3.575822	-5.380118	-5.380118
O	0.901729	-5.380118	-8.055717
O	1.337051	-3.140815	-5.816414
O	5.379290	-3.577111	-5.380118
O	1.337051	-1.337798	-7.619431
O	3.140509	-1.337798	-5.816414
O	3.140509	-3.140815	-7.619431
Ti	-1.119385	-5.598271	-7.837574
Ti	1.119385	-3.358958	-7.837574
Ti	5.596946	-5.598271	-5.598271
Ti	3.358166	-3.358958	-5.598271
K	4.477556	0.000000	-4.478614
K	6.716336	-2.239303	-6.717917
O	3.575827	0.901503	-8.055717
O	8.053378	-0.901503	-5.380118
O	5.379285	-0.901503	-8.055717
O	5.814607	1.337799	-5.816414
O	9.856846	0.901503	-5.380118
O	5.814607	3.140816	-7.619431
O	7.618065	3.140816	-5.816414
O	7.618066	1.337799	-7.619431
Ti	3.358171	-1.119656	-7.837574
Ti	5.596941	1.119656	-7.837574
Ti	10.074502	-1.119656	-5.598271
Ti	7.835722	1.119656	-5.598271
