320

O	-1.126548	6.260150	4.231838
O	2.370423	4.105694	3.580992
O	1.472469	5.660997	1.041192
O	1.795910	0.000000	3.908559
O	-0.345921	3.709759	-2.149453
O	-0.897955	1.555303	3.908559
O	-2.141830	3.709759	0.390347
O	3.385706	1.555303	-2.149453
O	3.614299	6.260150	-2.472732
O	5.984722	2.154456	4.231838
O	4.283661	0.000000	0.390347
O	4.166333	4.105694	1.041192
O	5.897939	2.293371	-0.680839
O	2.225323	3.854373	-1.235254
O	3.549402	1.561002	2.509806
O	6.376351	0.000000	2.596932
O	-0.422834	3.854373	2.509806
O	4.573861	0.000000	5.146037
O	-0.962852	6.254451	-0.680839
O	1.324079	2.293371	5.787577
O	1.385686	5.522082	-3.871484
O	-2.286930	3.961080	5.146037
O	-3.188175	5.522082	2.596932
O	4.089420	3.961080	-3.871484
Sb	0.000000	0.000000	4.871898
Sb	-2.296635	3.977888	-1.623966
Sb	4.593269	0.000000	-1.623966
Sb	2.215619	3.837565	1.566679
Sb	6.479920	0.000000	4.581996
Sb	2.544587	0.000000	1.799295
Sb	-1.272294	2.203677	1.799295
Sb	-3.239960	5.611776	4.581996
Sb	3.239960	5.611776	-4.581996
Sb	1.272294	2.203677	-1.799295
Sm	1.128063	5.861590	-1.595323
Sm	-1.128063	5.861590	1.595323
Sm	5.640317	1.953863	1.595323
Sm	0.000000	3.907726	4.785968
Sm	4.512254	3.907726	-1.595323
Sm	3.384190	1.953863	4.785968
O	-1.126548	6.260150	13.803774
O	2.370423	4.105694	13.152928
O	1.472469	5.660997	10.613128
O	1.795910	0.000000	13.480495
O	-0.345921	3.709759	7.422483
O	-0.897955	1.555303	13.480495
O	-2.141830	3.709759	9.962283
O	3.385706	1.555303	7.422483
O	3.614299	6.260150	7.099204
O	5.984722	2.154456	13.803774
O	4.283661	0.000000	9.962283
O	4.166333	4.105694	10.613128
O	5.897939	2.293371	8.891097
O	2.225323	3.854373	8.336682
O	3.549402	1.561002	12.081742
O	6.376351	0.000000	12.168868
O	-0.422834	3.854373	12.081742
O	4.573861	0.000000	14.717973
O	-0.962852	6.254451	8.891097
O	1.324079	2.293371	15.359513
O	1.385686	5.522082	5.700451
O	-2.286930	3.961080	14.717973
O	-3.188175	5.522082	12.168868
O	4.089420	3.961080	5.700451
Sb	0.000000	0.000000	14.443833
Sb	-2.296635	3.977888	7.947970
Sb	4.593269	0.000000	7.947970
Sb	2.215619	3.837565	11.138615
Sb	6.479920	0.000000	14.153932
Sb	2.544587	0.000000	11.371231
Sb	-1.272294	2.203677	11.371231
Sb	-3.239960	5.611776	14.153932
Sb	3.239960	5.611776	4.989940
Sb	1.272294	2.203677	7.772641
Sm	1.128063	5.861590	7.976613
Sm	-1.128063	5.861590	11.167259
Sm	5.640317	1.953863	11.167259
Sm	0.000000	3.907726	14.357904
Sm	4.512254	3.907726	7.976613
Sm	3.384190	1.953863	14.357904
O	-5.638802	14.075602	1.041193
O	-2.141830	11.921147	0.390347
O	-3.039785	13.476450	-2.149453
O	-2.716344	7.815453	0.717913
O	-4.858175	11.525212	-5.340098
O	-5.410209	9.370756	0.717913
O	-6.654084	11.525212	-2.800298
O	-1.126548	9.370756	-5.340098
O	-0.897955	14.075602	-5.663377
O	1.472469	9.969909	1.041193
O	-0.228593	7.815453	-2.800298
O	-0.345921	11.921147	-2.149453
O	1.385686	10.108824	-3.871484
O	-2.286930	11.669826	-4.425899
O	-0.962852	9.376455	-0.680839
O	1.864097	7.815453	-0.593714
O	-4.935088	11.669826	-0.680839
O	0.061607	7.815453	1.955392
O	-5.475106	14.069904	-3.871484
O	-3.188175	10.108824	2.596932
O	-3.126568	13.337534	-7.062130
O	-6.799184	11.776533	1.955392
O	-7.700429	13.337534	-0.593714
O	-0.422834	11.776533	-7.062130
Sb	-4.512254	7.815453	1.681252
Sb	-6.808888	11.793341	-4.814611
Sb	0.081015	7.815453	-4.814611
Sb	-2.296635	11.653018	-1.623966
Sb	1.967667	7.815453	1.391350
Sb	-1.967667	7.815453	-1.391350
Sb	-5.784547	10.019130	-1.391350
Sb	-7.752214	13.427229	1.391350
Sb	-1.272294	13.427229	-7.772641
Sb	-3.239960	10.019130	-4.989940
Sm	-3.384190	13.677043	-4.785968
Sm	-5.640317	13.677043	-1.595323
Sm	1.128063	9.769316	-1.595323
Sm	-4.512254	11.723179	1.595323
Sm	-0.000000	11.723179	-4.785968
Sm	-1.128063	9.769316	1.595323
O	-5.638802	14.075602	10.613128
O	-2.141830	11.921147	9.962283
O	-3.039785	13.476450	7.422483
O	-2.716344	7.815453	10.289849
O	-4.858175	11.525212	4.231838
O	-5.410209	9.370756	10.289849
O	-6.654084	11.525212	6.771638
O	-1.126548	9.370756	4.231838
O	-0.897955	14.075602	3.908559
O	1.472469	9.969909	10.613128
O	-0.228593	7.815453	6.771638
O	-0.345921	11.921147	7.422483
O	1.385686	10.108824	5.700451
O	-2.286930	11.669826	5.146037
O	-0.962852	9.376455	8.891097
O	1.864097	7.815453	8.978222
O	-4.935088	11.669826	8.891097
O	0.061607	7.815453	11.527328
O	-5.475106	14.069904	5.700451
O	-3.188175	10.108824	12.168868
O	-3.126568	13.337534	2.509806
O	-6.799184	11.776533	11.527328
O	-7.700429	13.337534	8.978222
O	-0.422834	11.776533	2.509806
Sb	-4.512254	7.815453	11.253188
Sb	-6.808888	11.793341	4.757325
Sb	0.081015	7.815453	4.757325
Sb	-2.296635	11.653018	7.947970
Sb	1.967667	7.815453	10.963286
Sb	-1.967667	7.815453	8.180586
Sb	-5.784547	10.019130	8.180586
Sb	-7.752214	13.427229	10.963286
Sb	-1.272294	13.427229	1.799295
Sb	-3.239960	10.019130	4.581996
Sm	-3.384190	13.677043	4.785968
Sm	-5.640317	13.677043	7.976613
Sm	1.128063	9.769316	7.976613
Sm	-4.512254	11.723179	11.167259
Sm	-0.000000	11.723179	4.785968
Sm	-1.128063	9.769316	11.167259
O	7.897960	6.260150	1.041193
O	11.394931	4.105694	0.390347
O	10.496976	5.660997	-2.149453
O	10.820417	0.000000	0.717913
O	8.678587	3.709759	-5.340098
O	8.126553	1.555303	0.717913
O	6.882677	3.709759	-2.800298
O	12.410214	1.555303	-5.340098
O	12.638807	6.260150	-5.663377
O	15.009230	2.154456	1.041193
O	13.308169	0.000000	-2.800298
O	13.190841	4.105694	-2.149453
O	14.922447	2.293371	-3.871484
O	11.249831	3.854373	-4.425899
O	12.573910	1.561002	-0.680839
O	15.400858	0.000000	-0.593714
O	8.601674	3.854373	-0.680839
O	13.598369	0.000000	1.955392
O	8.061656	6.254451	-3.871484
O	10.348586	2.293371	2.596932
O	10.410193	5.522082	-7.062130
O	6.737577	3.961080	1.955392
O	5.836332	5.522082	-0.593714
O	13.113928	3.961080	-7.062130
Sb	9.024508	0.000000	1.681252
Sb	6.727873	3.977888	-4.814611
Sb	13.617777	0.000000	-4.814611
Sb	11.240127	3.837565	-1.623966
Sb	15.504428	0.000000	1.391350
Sb	11.569095	0.000000	-1.391350
Sb	7.752214	2.203677	-1.391350
Sb	5.784547	5.611776	1.391350
Sb	12.264468	5.611776	-7.772641
Sb	10.296801	2.203677	-4.989940
Sm	10.152571	5.861590	-4.785968
Sm	7.896444	5.861590	-1.595323
Sm	14.664825	1.953863	-1.595323
Sm	9.024508	3.907726	1.595323
Sm	13.536762	3.907726	-4.785968
Sm	12.408698	1.953863	1.595323
O	7.897960	6.260150	10.613128
O	11.394931	4.105694	9.962283
O	10.496976	5.660997	7.422483
O	10.820417	0.000000	10.289849
O	8.678587	3.709759	4.231838
O	8.126553	1.555303	10.289849
O	6.882677	3.709759	6.771638
O	12.410214	1.555303	4.231838
O	12.638807	6.260150	3.908559
O	15.009230	2.154456	10.613128
O	13.308169	0.000000	6.771638
O	13.190841	4.105694	7.422483
O	14.922447	2.293371	5.700451
O	11.249831	3.854373	5.146037
O	12.573910	1.561002	8.891097
O	15.400858	0.000000	8.978222
O	8.601674	3.854373	8.891097
O	13.598369	0.000000	11.527328
O	8.061656	6.254451	5.700451
O	10.348586	2.293371	12.168868
O	10.410193	5.522082	2.509806
O	6.737577	3.961080	11.527328
O	5.836332	5.522082	8.978222
O	13.113928	3.961080	2.509806
Sb	9.024508	0.000000	11.253188
Sb	6.727873	3.977888	4.757325
Sb	13.617777	0.000000	4.757325
Sb	11.240127	3.837565	7.947970
Sb	15.504428	0.000000	10.963286
Sb	11.569095	0.000000	8.180586
Sb	7.752214	2.203677	8.180586
Sb	5.784547	5.611776	10.963286
Sb	12.264468	5.611776	1.799295
Sb	10.296801	2.203677	4.581996
Sm	10.152571	5.861590	4.785968
Sm	7.896444	5.861590	7.976613
Sm	14.664825	1.953863	7.976613
Sm	9.024508	3.907726	11.167259
Sm	13.536762	3.907726	4.785968
Sm	12.408698	1.953863	11.167259
O	3.385706	14.075602	-2.149453
O	6.882677	11.921147	-2.800298
O	5.984722	13.476450	-5.340098
O	6.308163	7.815453	-2.472732
O	4.166333	11.525212	-8.530743
O	3.614299	9.370756	-2.472732
O	2.370423	11.525212	-5.990944
O	7.897960	9.370756	-8.530743
O	8.126553	14.075602	-8.854022
O	10.496976	9.969909	-2.149453
O	8.795915	7.815453	-5.990944
O	8.678587	11.921147	-5.340098
O	10.410193	10.108824	-7.062130
O	6.737577	11.669826	-7.616544
O	8.061656	9.376455	-3.871484
O	10.888604	7.815453	-3.784359
O	4.089420	11.669826	-3.871484
O	9.086115	7.815453	-1.235254
O	3.549402	14.069904	-7.062130
O	5.836332	10.108824	-0.593714
O	5.897939	13.337534	-10.252775
O	2.225323	11.776533	-1.235254
O	1.324079	13.337534	-3.784359
O	8.601674	11.776533	-10.252775
Sb	4.512254	7.815453	-1.509393
Sb	2.215619	11.793341	-8.005256
Sb	9.105523	7.815453	-8.005256
Sb	6.727873	11.653018	-4.814611
Sb	10.992174	7.815453	-1.799295
Sb	7.056841	7.815453	-4.581996
Sb	3.239960	10.019130	-4.581996
Sb	1.272294	13.427229	-1.799295
Sb	7.752214	13.427229	-10.963286
Sb	5.784547	10.019130	-8.180585
Sm	5.640317	13.677043	-7.976613
Sm	3.384190	13.677043	-4.785968
Sm	10.152571	9.769316	-4.785968
Sm	4.512254	11.723179	-1.595323
Sm	9.024508	11.723179	-7.976613
Sm	7.896444	9.769316	-1.595323
O	3.385706	14.075602	7.422483
O	6.882677	11.921147	6.771638
O	5.984722	13.476450	4.231838
O	6.308163	7.815453	7.099204
O	4.166333	11.525212	1.041193
O	3.614299	9.370756	7.099204
O	2.370423	11.525212	3.580992
O	7.897960	9.370756	1.041193
O	8.126553	14.075602	0.717913
O	10.496976	9.969909	7.422483
O	8.795915	7.815453	3.580992
O	8.678587	11.921147	4.231838
O	10.410193	10.108824	2.509806
O	6.737577	11.669826	1.955392
O	8.061656	9.376455	5.700451
O	10.888604	7.815453	5.787577
O	4.089420	11.669826	5.700451
O	9.086115	7.815453	8.336682
O	3.549402	14.069904	2.509806
O	5.836332	10.108824	8.978222
O	5.897939	13.337534	-0.680839
O	2.225323	11.776533	8.336682
O	1.324079	13.337534	5.787577
O	8.601674	11.776533	-0.680839
Sb	4.512254	7.815453	8.062543
Sb	2.215619	11.793341	1.566679
Sb	9.105523	7.815453	1.566679
Sb	6.727873	11.653018	4.757325
Sb	10.992174	7.815453	7.772641
Sb	7.056841	7.815453	4.989940
Sb	3.239960	10.019130	4.989940
Sb	1.272294	13.427229	7.772641
Sb	7.752214	13.427229	-1.391350
Sb	5.784547	10.019130	1.391350
Sm	5.640317	13.677043	1.595323
Sm	3.384190	13.677043	4.785968
Sm	10.152571	9.769316	4.785968
Sm	4.512254	11.723179	7.976613
Sm	9.024508	11.723179	1.595323
Sm	7.896444	9.769316	7.976613
