40

O	2.205139	2.205139	0.000000
O	2.205139	0.000000	2.205139
O	0.000000	2.205139	2.205139
U	2.205139	2.205139	2.205139
Y	0.000000	0.000000	0.000000
O	2.205139	2.205139	4.410277
O	2.205139	0.000000	6.615416
O	0.000000	2.205139	6.615416
U	2.205139	2.205139	6.615416
Y	0.000000	0.000000	4.410277
O	2.205139	6.615416	0.000000
O	2.205139	4.410277	2.205139
O	0.000000	6.615416	2.205139
U	2.205139	6.615416	2.205139
Y	0.000000	4.410277	0.000000
O	2.205139	6.615416	4.410277
O	2.205139	4.410277	6.615416
O	0.000000	6.615416	6.615416
U	2.205139	6.615416	6.615416
Y	0.000000	4.410277	4.410277
O	6.615416	2.205139	0.000000
O	6.615416	0.000000	2.205139
O	4.410277	2.205139	2.205139
U	6.615416	2.205139	2.205139
Y	4.410277	0.000000	0.000000
O	6.615416	2.205139	4.410277
O	6.615416	0.000000	6.615416
O	4.410277	2.205139	6.615416
U	6.615416	2.205139	6.615416
Y	4.410277	0.000000	4.410277
O	6.615416	6.615416	0.000000
O	6.615416	4.410277	2.205139
O	4.410277	6.615416	2.205139
U	6.615416	6.615416	2.205139
Y	4.410277	4.410277	0.000000
O	6.615416	6.615416	4.410277
O	6.615416	4.410277	6.615416
O	4.410277	6.615416	6.615416
U	6.615416	6.615416	6.615416
Y	4.410277	4.410277	4.410277
