40

F	0.000000	2.161288	2.161288
F	2.161288	0.000000	2.161288
F	2.161288	2.161288	0.000000
O	0.000000	0.000000	0.000000
Te	2.161288	2.161288	2.161288
F	0.000000	2.161288	6.483865
F	2.161288	0.000000	6.483865
F	2.161288	2.161288	4.322576
O	0.000000	0.000000	4.322576
Te	2.161288	2.161288	6.483865
F	0.000000	6.483865	2.161288
F	2.161288	4.322576	2.161288
F	2.161288	6.483865	0.000000
O	0.000000	4.322576	0.000000
Te	2.161288	6.483865	2.161288
F	0.000000	6.483865	6.483865
F	2.161288	4.322576	6.483865
F	2.161288	6.483865	4.322576
O	0.000000	4.322576	4.322576
Te	2.161288	6.483865	6.483865
F	4.322576	2.161288	2.161288
F	6.483865	0.000000	2.161288
F	6.483865	2.161288	0.000000
O	4.322576	0.000000	0.000000
Te	6.483865	2.161288	2.161288
F	4.322576	2.161288	6.483865
F	6.483865	0.000000	6.483865
F	6.483865	2.161288	4.322576
O	4.322576	0.000000	4.322576
Te	6.483865	2.161288	6.483865
F	4.322576	6.483865	2.161288
F	6.483865	4.322576	2.161288
F	6.483865	6.483865	0.000000
O	4.322576	4.322576	0.000000
Te	6.483865	6.483865	2.161288
F	4.322576	6.483865	6.483865
F	6.483865	4.322576	6.483865
F	6.483865	6.483865	4.322576
O	4.322576	4.322576	4.322576
Te	6.483865	6.483865	6.483865
