40

Nb	0.000000	0.000000	0.000000
O	0.000000	2.014219	2.014219
O	2.014219	0.000000	2.014219
O	2.014219	2.014219	0.000000
Ta	2.014219	2.014219	2.014219
Nb	0.000000	0.000000	4.028439
O	0.000000	2.014219	6.042658
O	2.014219	0.000000	6.042658
O	2.014219	2.014219	4.028439
Ta	2.014219	2.014219	6.042658
Nb	0.000000	4.028439	0.000000
O	0.000000	6.042658	2.014219
O	2.014219	4.028439	2.014219
O	2.014219	6.042658	0.000000
Ta	2.014219	6.042658	2.014219
Nb	0.000000	4.028439	4.028439
O	0.000000	6.042658	6.042658
O	2.014219	4.028439	6.042658
O	2.014219	6.042658	4.028439
Ta	2.014219	6.042658	6.042658
Nb	4.028439	0.000000	0.000000
O	4.028439	2.014219	2.014219
O	6.042658	0.000000	2.014219
O	6.042658	2.014219	0.000000
Ta	6.042658	2.014219	2.014219
Nb	4.028439	0.000000	4.028439
O	4.028439	2.014219	6.042658
O	6.042658	0.000000	6.042658
O	6.042658	2.014219	4.028439
Ta	6.042658	2.014219	6.042658
Nb	4.028439	4.028439	0.000000
O	4.028439	6.042658	2.014219
O	6.042658	4.028439	2.014219
O	6.042658	6.042658	0.000000
Ta	6.042658	6.042658	2.014219
Nb	4.028439	4.028439	4.028439
O	4.028439	6.042658	6.042658
O	6.042658	4.028439	6.042658
O	6.042658	6.042658	4.028439
Ta	6.042658	6.042658	6.042658
