40

O	2.036943	0.000000	0.000000
O	0.000000	0.000000	2.036943
O	0.000000	2.036943	0.000000
Ba	2.036943	2.036943	2.036943
Ir	0.000000	0.000000	0.000000
O	2.036943	0.000000	4.073885
O	0.000000	0.000000	6.110828
O	0.000000	2.036943	4.073885
Ba	2.036943	2.036943	6.110828
Ir	0.000000	0.000000	4.073885
O	2.036943	4.073885	0.000000
O	0.000000	4.073885	2.036943
O	0.000000	6.110828	0.000000
Ba	2.036943	6.110828	2.036943
Ir	0.000000	4.073885	0.000000
O	2.036943	4.073885	4.073885
O	0.000000	4.073885	6.110828
O	0.000000	6.110828	4.073885
Ba	2.036943	6.110828	6.110828
Ir	0.000000	4.073885	4.073885
O	6.110828	0.000000	0.000000
O	4.073885	0.000000	2.036943
O	4.073885	2.036943	0.000000
Ba	6.110828	2.036943	2.036943
Ir	4.073885	0.000000	0.000000
O	6.110828	0.000000	4.073885
O	4.073885	0.000000	6.110828
O	4.073885	2.036943	4.073885
Ba	6.110828	2.036943	6.110828
Ir	4.073885	0.000000	4.073885
O	6.110828	4.073885	0.000000
O	4.073885	4.073885	2.036943
O	4.073885	6.110828	0.000000
Ba	6.110828	6.110828	2.036943
Ir	4.073885	4.073885	0.000000
O	6.110828	4.073885	4.073885
O	4.073885	4.073885	6.110828
O	4.073885	6.110828	4.073885
Ba	6.110828	6.110828	6.110828
Ir	4.073885	4.073885	4.073885
