112

Be	0.000000	0.000000	0.000000
Be	2.015870	-2.015973	-2.015973
O	0.947137	0.947289	-0.947289
O	2.963007	-1.068685	-1.068685
O	-1.068733	1.068685	-2.963262
O	1.068733	-1.068685	-2.963262
O	0.947137	3.084658	-3.084658
O	3.084603	3.084658	-0.947289
O	3.084603	0.947289	-3.084658
O	5.100473	1.068685	-1.068685
Ru	-1.007930	-1.007982	-3.023955
Ru	3.023800	1.007982	-1.007982
Ru	1.007930	1.007982	-3.023955
Ru	5.039670	-1.007982	-1.007982
Be	4.031738	4.031945	0.000000
Be	6.047608	2.015971	-2.015973
O	4.978875	4.979233	-0.947289
O	6.994745	2.963260	-1.068685
O	2.963005	5.100629	-2.963262
O	5.100471	2.963260	-2.963262
O	4.978875	7.116603	-3.084658
O	7.116341	7.116602	-0.947289
O	7.116341	4.979233	-3.084658
O	9.132211	5.100629	-1.068685
Ru	3.023808	3.023963	-3.023955
Ru	7.055538	5.039926	-1.007982
Ru	5.039668	5.039926	-3.023955
Ru	9.071408	3.023963	-1.007982
Be	-4.031738	0.000000	-4.031945
Be	-2.015868	-2.015973	-6.047918
O	-3.084601	0.947289	-4.979233
O	-1.068731	-1.068685	-5.100629
O	-5.100471	1.068685	-6.995207
O	-2.963005	-1.068685	-6.995207
O	-3.084601	3.084658	-7.116603
O	-0.947135	3.084658	-4.979233
O	-0.947135	0.947289	-7.116603
O	1.068735	1.068685	-5.100629
Ru	-5.039668	-1.007982	-7.055900
Ru	-1.007938	1.007982	-5.039926
Ru	-3.023808	1.007982	-7.055900
Ru	1.007932	-1.007982	-5.039926
Be	0.000000	4.031945	-4.031945
Be	2.015870	2.015971	-6.047918
O	0.947137	4.979233	-4.979233
O	2.963007	2.963260	-5.100629
O	-1.068733	5.100629	-6.995207
O	1.068733	2.963260	-6.995207
O	0.947137	7.116603	-7.116603
O	3.084603	7.116602	-4.979233
O	3.084603	4.979233	-7.116603
O	5.100473	5.100629	-5.100629
Ru	-1.007930	3.023963	-7.055900
Ru	3.023800	5.039926	-5.039926
Ru	1.007930	5.039926	-7.055900
Ru	5.039670	3.023963	-5.039926
Be	4.031738	-4.031945	0.000000
Be	6.047608	-6.047918	-2.015973
O	4.978875	-3.084656	-0.947289
O	6.994745	-5.100629	-1.068685
O	2.963005	-2.963260	-2.963262
O	5.100471	-5.100629	-2.963262
O	4.978875	-0.947287	-3.084658
O	7.116341	-0.947287	-0.947289
O	7.116341	-3.084656	-3.084658
O	9.132211	-2.963260	-1.068685
Ru	3.023808	-5.039926	-3.023955
Ru	7.055538	-3.023963	-1.007982
Ru	5.039668	-3.023963	-3.023955
Ru	9.071408	-5.039926	-1.007982
Be	8.063476	0.000000	0.000000
Be	10.079346	-2.015973	-2.015973
O	9.010613	0.947289	-0.947289
O	11.026483	-1.068685	-1.068685
O	6.994743	1.068685	-2.963262
O	9.132209	-1.068685	-2.963262
O	9.010613	3.084658	-3.084658
O	11.148079	3.084658	-0.947289
O	11.148079	0.947289	-3.084658
O	13.163949	1.068685	-1.068685
Ru	7.055546	-1.007982	-3.023955
Ru	11.087276	1.007982	-1.007982
Ru	9.071406	1.007982	-3.023955
Ru	13.103146	-1.007982	-1.007982
Be	0.000000	-4.031945	-4.031945
Be	2.015870	-6.047918	-6.047918
O	0.947137	-3.084656	-4.979233
O	2.963007	-5.100629	-5.100629
O	-1.068733	-2.963260	-6.995207
O	1.068733	-5.100629	-6.995207
O	0.947137	-0.947287	-7.116603
O	3.084603	-0.947287	-4.979233
O	3.084603	-3.084656	-7.116603
O	5.100473	-2.963260	-5.100629
Ru	-1.007930	-5.039926	-7.055900
Ru	3.023800	-3.023963	-5.039926
Ru	1.007930	-3.023963	-7.055900
Ru	5.039670	-5.039926	-5.039926
Be	4.031738	0.000000	-4.031945
Be	6.047608	-2.015973	-6.047918
O	4.978875	0.947289	-4.979233
O	6.994745	-1.068685	-5.100629
O	2.963005	1.068685	-6.995207
O	5.100471	-1.068685	-6.995207
O	4.978875	3.084658	-7.116603
O	7.116341	3.084658	-4.979233
O	7.116341	0.947289	-7.116603
O	9.132211	1.068685	-5.100629
Ru	3.023808	-1.007982	-7.055900
Ru	7.055538	1.007982	-5.039926
Ru	5.039668	1.007982	-7.055900
Ru	9.071408	-1.007982	-5.039926
