40

O	2.143388	2.143388	0.000000
O	2.143388	0.000000	2.143388
O	0.000000	2.143388	2.143388
Tm	0.000000	0.000000	0.000000
Y	2.143388	2.143388	2.143388
O	2.143388	2.143388	4.286776
O	2.143388	0.000000	6.430163
O	0.000000	2.143388	6.430163
Tm	0.000000	0.000000	4.286776
Y	2.143388	2.143388	6.430163
O	2.143388	6.430163	0.000000
O	2.143388	4.286776	2.143388
O	0.000000	6.430163	2.143388
Tm	0.000000	4.286776	0.000000
Y	2.143388	6.430163	2.143388
O	2.143388	6.430163	4.286776
O	2.143388	4.286776	6.430163
O	0.000000	6.430163	6.430163
Tm	0.000000	4.286776	4.286776
Y	2.143388	6.430163	6.430163
O	6.430163	2.143388	0.000000
O	6.430163	0.000000	2.143388
O	4.286776	2.143388	2.143388
Tm	4.286776	0.000000	0.000000
Y	6.430163	2.143388	2.143388
O	6.430163	2.143388	4.286776
O	6.430163	0.000000	6.430163
O	4.286776	2.143388	6.430163
Tm	4.286776	0.000000	4.286776
Y	6.430163	2.143388	6.430163
O	6.430163	6.430163	0.000000
O	6.430163	4.286776	2.143388
O	4.286776	6.430163	2.143388
Tm	4.286776	4.286776	0.000000
Y	6.430163	6.430163	2.143388
O	6.430163	6.430163	4.286776
O	6.430163	4.286776	6.430163
O	4.286776	6.430163	6.430163
Tm	4.286776	4.286776	4.286776
Y	6.430163	6.430163	6.430163
