40

O	0.000000	2.026980	2.026980
O	2.026980	0.000000	2.026980
O	2.026980	2.026980	0.000000
Sb	0.000000	0.000000	0.000000
Se	2.026980	2.026980	2.026980
O	0.000000	2.026980	6.080940
O	2.026980	0.000000	6.080940
O	2.026980	2.026980	4.053960
Sb	0.000000	0.000000	4.053960
Se	2.026980	2.026980	6.080940
O	0.000000	6.080940	2.026980
O	2.026980	4.053960	2.026980
O	2.026980	6.080940	0.000000
Sb	0.000000	4.053960	0.000000
Se	2.026980	6.080940	2.026980
O	0.000000	6.080940	6.080940
O	2.026980	4.053960	6.080940
O	2.026980	6.080940	4.053960
Sb	0.000000	4.053960	4.053960
Se	2.026980	6.080940	6.080940
O	4.053960	2.026980	2.026980
O	6.080940	0.000000	2.026980
O	6.080940	2.026980	0.000000
Sb	4.053960	0.000000	0.000000
Se	6.080940	2.026980	2.026980
O	4.053960	2.026980	6.080940
O	6.080940	0.000000	6.080940
O	6.080940	2.026980	4.053960
Sb	4.053960	0.000000	4.053960
Se	6.080940	2.026980	6.080940
O	4.053960	6.080940	2.026980
O	6.080940	4.053960	2.026980
O	6.080940	6.080940	0.000000
Sb	4.053960	4.053960	0.000000
Se	6.080940	6.080940	2.026980
O	4.053960	6.080940	6.080940
O	6.080940	4.053960	6.080940
O	6.080940	6.080940	4.053960
Sb	4.053960	4.053960	4.053960
Se	6.080940	6.080940	6.080940
