40

O	2.148997	2.148997	0.000000
O	2.148997	0.000000	2.148997
O	0.000000	2.148997	2.148997
Pd	0.000000	0.000000	0.000000
Pu	2.148997	2.148997	2.148997
O	2.148997	2.148997	4.297993
O	2.148997	0.000000	6.446990
O	0.000000	2.148997	6.446990
Pd	0.000000	0.000000	4.297993
Pu	2.148997	2.148997	6.446990
O	2.148997	6.446990	0.000000
O	2.148997	4.297993	2.148997
O	0.000000	6.446990	2.148997
Pd	0.000000	4.297993	0.000000
Pu	2.148997	6.446990	2.148997
O	2.148997	6.446990	4.297993
O	2.148997	4.297993	6.446990
O	0.000000	6.446990	6.446990
Pd	0.000000	4.297993	4.297993
Pu	2.148997	6.446990	6.446990
O	6.446990	2.148997	0.000000
O	6.446990	0.000000	2.148997
O	4.297993	2.148997	2.148997
Pd	4.297993	0.000000	0.000000
Pu	6.446990	2.148997	2.148997
O	6.446990	2.148997	4.297993
O	6.446990	0.000000	6.446990
O	4.297993	2.148997	6.446990
Pd	4.297993	0.000000	4.297993
Pu	6.446990	2.148997	6.446990
O	6.446990	6.446990	0.000000
O	6.446990	4.297993	2.148997
O	4.297993	6.446990	2.148997
Pd	4.297993	4.297993	0.000000
Pu	6.446990	6.446990	2.148997
O	6.446990	6.446990	4.297993
O	6.446990	4.297993	6.446990
O	4.297993	6.446990	6.446990
Pd	4.297993	4.297993	4.297993
Pu	6.446990	6.446990	6.446990
