40

O	0.000000	1.962703	1.962703
O	1.962703	0.000000	1.962703
O	1.962703	1.962703	0.000000
S	0.000000	0.000000	0.000000
Se	1.962703	1.962703	1.962703
O	0.000000	1.962703	5.888110
O	1.962703	0.000000	5.888110
O	1.962703	1.962703	3.925407
S	0.000000	0.000000	3.925407
Se	1.962703	1.962703	5.888110
O	0.000000	5.888110	1.962703
O	1.962703	3.925407	1.962703
O	1.962703	5.888110	0.000000
S	0.000000	3.925407	0.000000
Se	1.962703	5.888110	1.962703
O	0.000000	5.888110	5.888110
O	1.962703	3.925407	5.888110
O	1.962703	5.888110	3.925407
S	0.000000	3.925407	3.925407
Se	1.962703	5.888110	5.888110
O	3.925407	1.962703	1.962703
O	5.888110	0.000000	1.962703
O	5.888110	1.962703	0.000000
S	3.925407	0.000000	0.000000
Se	5.888110	1.962703	1.962703
O	3.925407	1.962703	5.888110
O	5.888110	0.000000	5.888110
O	5.888110	1.962703	3.925407
S	3.925407	0.000000	3.925407
Se	5.888110	1.962703	5.888110
O	3.925407	5.888110	1.962703
O	5.888110	3.925407	1.962703
O	5.888110	5.888110	0.000000
S	3.925407	3.925407	0.000000
Se	5.888110	5.888110	1.962703
O	3.925407	5.888110	5.888110
O	5.888110	3.925407	5.888110
O	5.888110	5.888110	3.925407
S	3.925407	3.925407	3.925407
Se	5.888110	5.888110	5.888110
