112

O	3.355949	-0.992478	-0.992478
O	-0.992839	0.992478	-3.357322
O	0.992839	-0.992478	-3.357322
O	1.181555	1.182422	-1.182422
O	5.341628	0.992478	-0.992478
O	1.181555	3.167378	-3.167378
O	3.167233	3.167378	-1.182422
O	3.167233	1.182422	-3.167378
Ru	0.000000	0.000000	0.000000
Ru	2.174394	-2.174900	-2.174900
Tc	-1.087197	-1.087450	-3.262350
Tc	3.261591	1.087450	-1.087450
Tc	5.435986	-1.087450	-1.087450
Tc	1.087197	1.087450	-3.262350
O	7.704738	3.357322	-0.992478
O	3.355949	5.342278	-3.357322
O	5.341628	3.357322	-3.357322
O	5.530344	5.532222	-1.182422
O	9.690416	5.342278	-0.992478
O	5.530344	7.517178	-3.167378
O	7.516022	7.517178	-1.182422
O	7.516022	5.532222	-3.167378
Ru	4.348788	4.349800	0.000000
Ru	6.523183	2.174900	-2.174900
Tc	3.261591	3.262350	-3.262350
Tc	7.610380	5.437250	-1.087450
Tc	9.784774	3.262350	-1.087450
Tc	5.435986	5.437250	-3.262350
O	-0.992839	-0.992478	-5.342278
O	-5.341628	0.992478	-7.707122
O	-3.355949	-0.992478	-7.707122
O	-3.167233	1.182422	-5.532222
O	0.992839	0.992478	-5.342278
O	-3.167233	3.167378	-7.517178
O	-1.181555	3.167378	-5.532222
O	-1.181555	1.182422	-7.517178
Ru	-4.348788	0.000000	-4.349800
Ru	-2.174394	-2.174900	-6.524700
Tc	-5.435986	-1.087450	-7.612150
Tc	-1.087197	1.087450	-5.437250
Tc	1.087197	-1.087450	-5.437250
Tc	-3.261591	1.087450	-7.612150
O	3.355949	3.357322	-5.342278
O	-0.992839	5.342278	-7.707122
O	0.992839	3.357322	-7.707122
O	1.181555	5.532222	-5.532222
O	5.341628	5.342278	-5.342278
O	1.181555	7.517178	-7.517178
O	3.167233	7.517178	-5.532222
O	3.167233	5.532222	-7.517178
Ru	0.000000	4.349800	-4.349800
Ru	2.174394	2.174900	-6.524700
Tc	-1.087197	3.262350	-7.612150
Tc	3.261591	5.437250	-5.437250
Tc	5.435986	3.262350	-5.437250
Tc	1.087197	5.437250	-7.612150
O	7.704738	-5.342278	-0.992478
O	3.355949	-3.357322	-3.357322
O	5.341628	-5.342278	-3.357322
O	5.530344	-3.167378	-1.182422
O	9.690416	-3.357322	-0.992478
O	5.530344	-1.182422	-3.167378
O	7.516022	-1.182422	-1.182422
O	7.516022	-3.167378	-3.167378
Ru	4.348788	-4.349800	0.000000
Ru	6.523183	-6.524700	-2.174900
Tc	3.261591	-5.437250	-3.262350
Tc	7.610380	-3.262350	-1.087450
Tc	9.784774	-5.437250	-1.087450
Tc	5.435986	-3.262350	-3.262350
O	12.053526	-0.992478	-0.992478
O	7.704738	0.992478	-3.357322
O	9.690416	-0.992478	-3.357322
O	9.879132	1.182422	-1.182422
O	14.039204	0.992478	-0.992478
O	9.879132	3.167378	-3.167378
O	11.864810	3.167378	-1.182422
O	11.864810	1.182422	-3.167378
Ru	8.697577	0.000000	0.000000
Ru	10.871971	-2.174900	-2.174900
Tc	7.610380	-1.087450	-3.262350
Tc	11.959168	1.087450	-1.087450
Tc	14.133563	-1.087450	-1.087450
Tc	9.784774	1.087450	-3.262350
O	3.355949	-5.342278	-5.342278
O	-0.992839	-3.357322	-7.707122
O	0.992839	-5.342278	-7.707122
O	1.181555	-3.167378	-5.532222
O	5.341628	-3.357322	-5.342278
O	1.181555	-1.182422	-7.517178
O	3.167233	-1.182422	-5.532222
O	3.167233	-3.167378	-7.517178
Ru	0.000000	-4.349800	-4.349800
Ru	2.174394	-6.524700	-6.524700
Tc	-1.087197	-5.437250	-7.612150
Tc	3.261591	-3.262350	-5.437250
Tc	5.435986	-5.437250	-5.437250
Tc	1.087197	-3.262350	-7.612150
O	7.704738	-0.992478	-5.342278
O	3.355949	0.992478	-7.707122
O	5.341628	-0.992478	-7.707122
O	5.530344	1.182422	-5.532222
O	9.690416	0.992478	-5.342278
O	5.530344	3.167378	-7.517178
O	7.516022	3.167378	-5.532222
O	7.516022	1.182422	-7.517178
Ru	4.348788	0.000000	-4.349800
Ru	6.523183	-2.174900	-6.524700
Tc	3.261591	-1.087450	-7.612150
Tc	7.610380	1.087450	-5.437250
Tc	9.784774	-1.087450	-5.437250
Tc	5.435986	1.087450	-7.612150
