40

Eu	0.000000	0.000000	0.000000
Ni	1.892003	1.892003	1.892003
O	1.892003	1.892003	0.000000
O	1.892003	0.000000	1.892003
O	0.000000	1.892003	1.892003
Eu	0.000000	0.000000	3.784010
Ni	1.892003	1.892003	5.676013
O	1.892003	1.892003	3.784010
O	1.892003	0.000000	5.676013
O	0.000000	1.892003	5.676013
Eu	0.000000	3.784010	0.000000
Ni	1.892003	5.676013	1.892003
O	1.892003	5.676013	0.000000
O	1.892003	3.784010	1.892003
O	0.000000	5.676013	1.892003
Eu	0.000000	3.784010	3.784010
Ni	1.892003	5.676013	5.676013
O	1.892003	5.676013	3.784010
O	1.892003	3.784010	5.676013
O	0.000000	5.676013	5.676013
Eu	3.784010	0.000000	0.000000
Ni	5.676013	1.892003	1.892003
O	5.676013	1.892003	0.000000
O	5.676013	0.000000	1.892003
O	3.784010	1.892003	1.892003
Eu	3.784010	0.000000	3.784010
Ni	5.676013	1.892003	5.676013
O	5.676013	1.892003	3.784010
O	5.676013	0.000000	5.676013
O	3.784010	1.892003	5.676013
Eu	3.784010	3.784010	0.000000
Ni	5.676013	5.676013	1.892003
O	5.676013	5.676013	0.000000
O	5.676013	3.784010	1.892003
O	3.784010	5.676013	1.892003
Eu	3.784010	3.784010	3.784010
Ni	5.676013	5.676013	5.676013
O	5.676013	5.676013	3.784010
O	5.676013	3.784010	5.676013
O	3.784010	5.676013	5.676013
