40

Eu	2.091919	2.091919	2.091919
Ni	0.000000	0.000000	0.000000
O	2.091919	2.091919	0.000000
O	2.091919	0.000000	2.091919
O	0.000000	2.091919	2.091919
Eu	2.091919	2.091919	6.275769
Ni	0.000000	0.000000	4.183850
O	2.091919	2.091919	4.183850
O	2.091919	0.000000	6.275769
O	0.000000	2.091919	6.275769
Eu	2.091919	6.275769	2.091919
Ni	0.000000	4.183850	0.000000
O	2.091919	6.275769	0.000000
O	2.091919	4.183850	2.091919
O	0.000000	6.275769	2.091919
Eu	2.091919	6.275769	6.275769
Ni	0.000000	4.183850	4.183850
O	2.091919	6.275769	4.183850
O	2.091919	4.183850	6.275769
O	0.000000	6.275769	6.275769
Eu	6.275769	2.091919	2.091919
Ni	4.183850	0.000000	0.000000
O	6.275769	2.091919	0.000000
O	6.275769	0.000000	2.091919
O	4.183850	2.091919	2.091919
Eu	6.275769	2.091919	6.275769
Ni	4.183850	0.000000	4.183850
O	6.275769	2.091919	4.183850
O	6.275769	0.000000	6.275769
O	4.183850	2.091919	6.275769
Eu	6.275769	6.275769	2.091919
Ni	4.183850	4.183850	0.000000
O	6.275769	6.275769	0.000000
O	6.275769	4.183850	2.091919
O	4.183850	6.275769	2.091919
Eu	6.275769	6.275769	6.275769
Ni	4.183850	4.183850	4.183850
O	6.275769	6.275769	4.183850
O	6.275769	4.183850	6.275769
O	4.183850	6.275769	6.275769
