40

Ga	0.000000	0.000000	0.000000
O	0.000000	1.971025	1.971025
O	1.971025	0.000000	1.971025
O	1.971025	1.971025	0.000000
Os	1.971025	1.971025	1.971025
Ga	0.000000	0.000000	3.942050
O	0.000000	1.971025	5.913076
O	1.971025	0.000000	5.913076
O	1.971025	1.971025	3.942050
Os	1.971025	1.971025	5.913076
Ga	0.000000	3.942050	0.000000
O	0.000000	5.913076	1.971025
O	1.971025	3.942050	1.971025
O	1.971025	5.913076	0.000000
Os	1.971025	5.913076	1.971025
Ga	0.000000	3.942050	3.942050
O	0.000000	5.913076	5.913076
O	1.971025	3.942050	5.913076
O	1.971025	5.913076	3.942050
Os	1.971025	5.913076	5.913076
Ga	3.942050	0.000000	0.000000
O	3.942050	1.971025	1.971025
O	5.913076	0.000000	1.971025
O	5.913076	1.971025	0.000000
Os	5.913076	1.971025	1.971025
Ga	3.942050	0.000000	3.942050
O	3.942050	1.971025	5.913076
O	5.913076	0.000000	5.913076
O	5.913076	1.971025	3.942050
Os	5.913076	1.971025	5.913076
Ga	3.942050	3.942050	0.000000
O	3.942050	5.913076	1.971025
O	5.913076	3.942050	1.971025
O	5.913076	5.913076	0.000000
Os	5.913076	5.913076	1.971025
Ga	3.942050	3.942050	3.942050
O	3.942050	5.913076	5.913076
O	5.913076	3.942050	5.913076
O	5.913076	5.913076	3.942050
Os	5.913076	5.913076	5.913076
