40

Al	1.826716	1.826716	1.826716
O	1.826716	1.826716	0.000000
O	1.826716	0.000000	1.826716
O	0.000000	1.826716	1.826716
Rh	0.000000	0.000000	0.000000
Al	1.826716	1.826716	5.480152
O	1.826716	1.826716	3.653436
O	1.826716	0.000000	5.480152
O	0.000000	1.826716	5.480152
Rh	0.000000	0.000000	3.653436
Al	1.826716	5.480152	1.826716
O	1.826716	5.480152	0.000000
O	1.826716	3.653436	1.826716
O	0.000000	5.480152	1.826716
Rh	0.000000	3.653436	0.000000
Al	1.826716	5.480152	5.480152
O	1.826716	5.480152	3.653436
O	1.826716	3.653436	5.480152
O	0.000000	5.480152	5.480152
Rh	0.000000	3.653436	3.653436
Al	5.480152	1.826716	1.826716
O	5.480152	1.826716	0.000000
O	5.480152	0.000000	1.826716
O	3.653436	1.826716	1.826716
Rh	3.653436	0.000000	0.000000
Al	5.480152	1.826716	5.480152
O	5.480152	1.826716	3.653436
O	5.480152	0.000000	5.480152
O	3.653436	1.826716	5.480152
Rh	3.653436	0.000000	3.653436
Al	5.480152	5.480152	1.826716
O	5.480152	5.480152	0.000000
O	5.480152	3.653436	1.826716
O	3.653436	5.480152	1.826716
Rh	3.653436	3.653436	0.000000
Al	5.480152	5.480152	5.480152
O	5.480152	5.480152	3.653436
O	5.480152	3.653436	5.480152
O	3.653436	5.480152	5.480152
Rh	3.653436	3.653436	3.653436
