40

Al	1.857959	1.857959	1.857959
O	0.000000	1.857959	1.857959
O	1.857959	0.000000	1.857959
O	1.857959	1.857959	0.000000
Rh	0.000000	0.000000	0.000000
Al	1.857959	1.857959	5.573876
O	0.000000	1.857959	5.573876
O	1.857959	0.000000	5.573876
O	1.857959	1.857959	3.715918
Rh	0.000000	0.000000	3.715918
Al	1.857959	5.573876	1.857959
O	0.000000	5.573876	1.857959
O	1.857959	3.715918	1.857959
O	1.857959	5.573876	0.000000
Rh	0.000000	3.715918	0.000000
Al	1.857959	5.573876	5.573876
O	0.000000	5.573876	5.573876
O	1.857959	3.715918	5.573876
O	1.857959	5.573876	3.715918
Rh	0.000000	3.715918	3.715918
Al	5.573876	1.857959	1.857959
O	3.715918	1.857959	1.857959
O	5.573876	0.000000	1.857959
O	5.573876	1.857959	0.000000
Rh	3.715918	0.000000	0.000000
Al	5.573876	1.857959	5.573876
O	3.715918	1.857959	5.573876
O	5.573876	0.000000	5.573876
O	5.573876	1.857959	3.715918
Rh	3.715918	0.000000	3.715918
Al	5.573876	5.573876	1.857959
O	3.715918	5.573876	1.857959
O	5.573876	3.715918	1.857959
O	5.573876	5.573876	0.000000
Rh	3.715918	3.715918	0.000000
Al	5.573876	5.573876	5.573876
O	3.715918	5.573876	5.573876
O	5.573876	3.715918	5.573876
O	5.573876	5.573876	3.715918
Rh	3.715918	3.715918	3.715918
