40

Al	0.000000	0.000000	0.000000
O	1.933590	0.000000	1.933590
O	0.000000	1.933590	1.933590
O	1.933590	1.933590	0.000000
Rh	1.933590	1.933590	1.933590
Al	0.000000	0.000000	3.867192
O	1.933590	0.000000	5.800782
O	0.000000	1.933590	5.800782
O	1.933590	1.933590	3.867192
Rh	1.933590	1.933590	5.800782
Al	0.000000	3.867192	0.000000
O	1.933590	3.867192	1.933590
O	0.000000	5.800782	1.933590
O	1.933590	5.800782	0.000000
Rh	1.933590	5.800782	1.933590
Al	0.000000	3.867192	3.867192
O	1.933590	3.867192	5.800782
O	0.000000	5.800782	5.800782
O	1.933590	5.800782	3.867192
Rh	1.933590	5.800782	5.800782
Al	3.867192	0.000000	0.000000
O	5.800782	0.000000	1.933590
O	3.867192	1.933590	1.933590
O	5.800782	1.933590	0.000000
Rh	5.800782	1.933590	1.933590
Al	3.867192	0.000000	3.867192
O	5.800782	0.000000	5.800782
O	3.867192	1.933590	5.800782
O	5.800782	1.933590	3.867192
Rh	5.800782	1.933590	5.800782
Al	3.867192	3.867192	0.000000
O	5.800782	3.867192	1.933590
O	3.867192	5.800782	1.933590
O	5.800782	5.800782	0.000000
Rh	5.800782	5.800782	1.933590
Al	3.867192	3.867192	3.867192
O	5.800782	3.867192	5.800782
O	3.867192	5.800782	5.800782
O	5.800782	5.800782	3.867192
Rh	5.800782	5.800782	5.800782
