40

Br	0.000000	0.000000	0.000000
O	0.000000	2.273504	2.273504
O	2.273504	0.000000	2.273504
O	2.273504	2.273504	0.000000
Rb	2.273504	2.273504	2.273504
Br	0.000000	0.000000	4.547007
O	0.000000	2.273504	6.820511
O	2.273504	0.000000	6.820511
O	2.273504	2.273504	4.547007
Rb	2.273504	2.273504	6.820511
Br	0.000000	4.547007	0.000000
O	0.000000	6.820511	2.273504
O	2.273504	4.547007	2.273504
O	2.273504	6.820511	0.000000
Rb	2.273504	6.820511	2.273504
Br	0.000000	4.547007	4.547007
O	0.000000	6.820511	6.820511
O	2.273504	4.547007	6.820511
O	2.273504	6.820511	4.547007
Rb	2.273504	6.820511	6.820511
Br	4.547007	0.000000	0.000000
O	4.547007	2.273504	2.273504
O	6.820511	0.000000	2.273504
O	6.820511	2.273504	0.000000
Rb	6.820511	2.273504	2.273504
Br	4.547007	0.000000	4.547007
O	4.547007	2.273504	6.820511
O	6.820511	0.000000	6.820511
O	6.820511	2.273504	4.547007
Rb	6.820511	2.273504	6.820511
Br	4.547007	4.547007	0.000000
O	4.547007	6.820511	2.273504
O	6.820511	4.547007	2.273504
O	6.820511	6.820511	0.000000
Rb	6.820511	6.820511	2.273504
Br	4.547007	4.547007	4.547007
O	4.547007	6.820511	6.820511
O	6.820511	4.547007	6.820511
O	6.820511	6.820511	4.547007
Rb	6.820511	6.820511	6.820511
