72

Ca	-0.036409	2.401438	-2.401438
Ca	-2.401438	4.766466	-2.401438
Ca	-2.401438	2.401438	-0.036409
Ca	-2.401438	0.036409	-2.401438
Ca	-4.766466	2.401438	-2.401438
Ca	-2.401437	2.401438	-4.766466
Ge	0.000000	0.000000	0.000000
Ge	-4.802875	0.000000	0.000000
O	-2.401438	2.401438	-2.401438
Ca	-4.839284	-2.401438	-2.401438
Ca	-7.204313	-0.036409	-2.401438
Ca	-7.204313	-2.401438	-0.036409
Ca	-7.204313	-4.766466	-2.401438
Ca	-9.569341	-2.401438	-2.401438
Ca	-7.204313	-2.401438	-4.766466
Ge	-4.802875	-4.802875	0.000000
Ge	-9.605750	-4.802875	0.000000
O	-7.204313	-2.401438	-2.401438
Ca	4.766466	2.401438	-7.204313
Ca	2.401438	4.766466	-7.204313
Ca	2.401437	2.401438	-4.839284
Ca	2.401438	0.036409	-7.204313
Ca	0.036409	2.401438	-7.204313
Ca	2.401438	2.401438	-9.569341
Ge	4.802875	0.000000	-4.802875
Ge	0.000000	0.000000	-4.802875
O	2.401438	2.401438	-7.204313
Ca	-0.036409	-2.401438	-7.204313
Ca	-2.401438	-0.036409	-7.204313
Ca	-2.401438	-2.401438	-4.839284
Ca	-2.401438	-4.766466	-7.204313
Ca	-4.766466	-2.401438	-7.204313
Ca	-2.401437	-2.401438	-9.569341
Ge	0.000000	-4.802875	-4.802875
Ge	-4.802875	-4.802875	-4.802875
O	-2.401438	-2.401438	-7.204313
Ca	-4.839284	7.204313	-2.401438
Ca	-7.204313	9.569341	-2.401438
Ca	-7.204313	7.204313	-0.036409
Ca	-7.204313	4.839284	-2.401438
Ca	-9.569341	7.204313	-2.401438
Ca	-7.204313	7.204313	-4.766466
Ge	-4.802875	4.802875	0.000000
Ge	-9.605750	4.802875	0.000000
O	-7.204313	7.204313	-2.401438
Ca	-9.642159	2.401438	-2.401438
Ca	-12.007188	4.766466	-2.401438
Ca	-12.007188	2.401438	-0.036409
Ca	-12.007188	0.036409	-2.401438
Ca	-14.372216	2.401438	-2.401438
Ca	-12.007188	2.401438	-4.766466
Ge	-9.605750	0.000000	0.000000
Ge	-14.408625	0.000000	0.000000
O	-12.007188	2.401438	-2.401438
Ca	-0.036409	7.204313	-7.204313
Ca	-2.401438	9.569341	-7.204313
Ca	-2.401438	7.204313	-4.839284
Ca	-2.401438	4.839284	-7.204313
Ca	-4.766466	7.204313	-7.204313
Ca	-2.401437	7.204313	-9.569341
Ge	0.000000	4.802875	-4.802875
Ge	-4.802875	4.802875	-4.802875
O	-2.401438	7.204313	-7.204313
Ca	-4.839284	2.401438	-7.204313
Ca	-7.204313	4.766466	-7.204313
Ca	-7.204313	2.401438	-4.839284
Ca	-7.204313	0.036409	-7.204313
Ca	-9.569341	2.401438	-7.204313
Ca	-7.204313	2.401438	-9.569341
Ge	-4.802875	0.000000	-4.802875
Ge	-9.605750	0.000000	-4.802875
O	-7.204313	2.401438	-7.204313
