72

Ca	-7.230517	-4.855737	-7.230517
Ca	-7.230517	-7.230517	-9.605298
Ca	-4.855737	-7.230517	-7.230517
Ca	-7.230517	-9.605298	-7.230517
Ca	-7.230517	-7.230517	-4.855737
Ca	-9.605298	-7.230517	-7.230517
Ge	0.000000	0.000000	0.000000
Ge	-4.820345	-4.820345	-4.820345
O	-7.230517	-7.230517	-7.230517
Ca	-7.230517	-9.676082	-12.050862
Ca	-7.230517	-12.050862	-14.425643
Ca	-4.855737	-12.050862	-12.050862
Ca	-7.230517	-14.425643	-12.050862
Ca	-7.230517	-12.050862	-9.676082
Ca	-9.605298	-12.050862	-12.050862
Ge	0.000000	-4.820345	-4.820345
Ge	-4.820345	-9.640690	-9.640690
O	-7.230517	-12.050862	-12.050862
Ca	-12.050862	-4.855737	-12.050862
Ca	-12.050862	-7.230517	-14.425643
Ca	-9.676082	-7.230517	-12.050862
Ca	-12.050862	-9.605298	-12.050862
Ca	-12.050862	-7.230517	-9.676082
Ca	-14.425643	-7.230517	-12.050862
Ge	-4.820345	0.000000	-4.820345
Ge	-9.640690	-4.820345	-9.640690
O	-12.050862	-7.230517	-12.050862
Ca	-12.050862	-9.676082	-16.871207
Ca	-12.050862	-12.050862	-19.245987
Ca	-9.676082	-12.050862	-16.871207
Ca	-12.050862	-14.425643	-16.871207
Ca	-12.050862	-12.050862	-14.496427
Ca	-14.425643	-12.050862	-16.871207
Ge	-4.820345	-4.820345	-9.640690
Ge	-9.640690	-9.640690	-14.461035
O	-12.050862	-12.050862	-16.871207
Ca	-12.050862	-9.676082	-7.230517
Ca	-12.050862	-12.050862	-9.605298
Ca	-9.676082	-12.050862	-7.230517
Ca	-12.050862	-14.425643	-7.230517
Ca	-12.050862	-12.050862	-4.855737
Ca	-14.425643	-12.050862	-7.230517
Ge	-4.820345	-4.820345	0.000000
Ge	-9.640690	-9.640690	-4.820345
O	-12.050862	-12.050862	-7.230517
Ca	-12.050862	-14.496427	-12.050862
Ca	-12.050862	-16.871207	-14.425643
Ca	-9.676082	-16.871207	-12.050862
Ca	-12.050862	-19.245987	-12.050862
Ca	-12.050862	-16.871207	-9.676082
Ca	-14.425643	-16.871207	-12.050862
Ge	-4.820345	-9.640690	-4.820345
Ge	-9.640690	-14.461035	-9.640690
O	-12.050862	-16.871207	-12.050862
Ca	-16.871207	-9.676082	-12.050862
Ca	-16.871207	-12.050862	-14.425643
Ca	-14.496427	-12.050862	-12.050862
Ca	-16.871207	-14.425643	-12.050862
Ca	-16.871207	-12.050862	-9.676082
Ca	-19.245987	-12.050862	-12.050862
Ge	-9.640690	-4.820345	-4.820345
Ge	-14.461035	-9.640690	-9.640690
O	-16.871207	-12.050862	-12.050862
Ca	-16.871207	-14.496427	-16.871207
Ca	-16.871207	-16.871207	-19.245987
Ca	-14.496427	-16.871207	-16.871207
Ca	-16.871207	-19.245987	-16.871207
Ca	-16.871207	-16.871207	-14.496427
Ca	-19.245987	-16.871207	-16.871207
Ge	-9.640690	-9.640690	-9.640690
Ge	-14.461035	-14.461035	-14.461035
O	-16.871207	-16.871207	-16.871207
