40

O	0.000000	1.969857	1.969857
O	1.969857	0.000000	1.969857
O	1.969857	1.969857	0.000000
Os	1.969857	1.969857	1.969857
Si	0.000000	0.000000	0.000000
O	0.000000	1.969857	5.909571
O	1.969857	0.000000	5.909571
O	1.969857	1.969857	3.939714
Os	1.969857	1.969857	5.909571
Si	0.000000	0.000000	3.939714
O	0.000000	5.909571	1.969857
O	1.969857	3.939714	1.969857
O	1.969857	5.909571	0.000000
Os	1.969857	5.909571	1.969857
Si	0.000000	3.939714	0.000000
O	0.000000	5.909571	5.909571
O	1.969857	3.939714	5.909571
O	1.969857	5.909571	3.939714
Os	1.969857	5.909571	5.909571
Si	0.000000	3.939714	3.939714
O	3.939714	1.969857	1.969857
O	5.909571	0.000000	1.969857
O	5.909571	1.969857	0.000000
Os	5.909571	1.969857	1.969857
Si	3.939714	0.000000	0.000000
O	3.939714	1.969857	5.909571
O	5.909571	0.000000	5.909571
O	5.909571	1.969857	3.939714
Os	5.909571	1.969857	5.909571
Si	3.939714	0.000000	3.939714
O	3.939714	5.909571	1.969857
O	5.909571	3.939714	1.969857
O	5.909571	5.909571	0.000000
Os	5.909571	5.909571	1.969857
Si	3.939714	3.939714	0.000000
O	3.939714	5.909571	5.909571
O	5.909571	3.939714	5.909571
O	5.909571	5.909571	3.939714
Os	5.909571	5.909571	5.909571
Si	3.939714	3.939714	3.939714
