40

Ce	0.000000	0.000000	0.000000
Er	2.126180	2.126180	2.126180
O	2.126180	0.000000	2.126180
O	0.000000	2.126180	2.126180
O	2.126180	2.126180	0.000000
Ce	0.000000	0.000000	4.252367
Er	2.126180	2.126180	6.378547
O	2.126180	0.000000	6.378547
O	0.000000	2.126180	6.378547
O	2.126180	2.126180	4.252367
Ce	0.000000	4.252367	0.000000
Er	2.126180	6.378547	2.126180
O	2.126180	4.252367	2.126180
O	0.000000	6.378547	2.126180
O	2.126180	6.378547	0.000000
Ce	0.000000	4.252367	4.252367
Er	2.126180	6.378547	6.378547
O	2.126180	4.252367	6.378547
O	0.000000	6.378547	6.378547
O	2.126180	6.378547	4.252367
Ce	4.252367	0.000000	0.000000
Er	6.378547	2.126180	2.126180
O	6.378547	0.000000	2.126180
O	4.252367	2.126180	2.126180
O	6.378547	2.126180	0.000000
Ce	4.252367	0.000000	4.252367
Er	6.378547	2.126180	6.378547
O	6.378547	0.000000	6.378547
O	4.252367	2.126180	6.378547
O	6.378547	2.126180	4.252367
Ce	4.252367	4.252367	0.000000
Er	6.378547	6.378547	2.126180
O	6.378547	4.252367	2.126180
O	4.252367	6.378547	2.126180
O	6.378547	6.378547	0.000000
Ce	4.252367	4.252367	4.252367
Er	6.378547	6.378547	6.378547
O	6.378547	4.252367	6.378547
O	4.252367	6.378547	6.378547
O	6.378547	6.378547	4.252367
