40

Ge	0.000000	0.000000	0.000000
Mn	1.898074	1.898074	1.898074
O	0.000000	1.898074	1.898074
O	1.898074	0.000000	1.898074
O	1.898074	1.898074	0.000000
Ge	0.000000	0.000000	3.796147
Mn	1.898074	1.898074	5.694221
O	0.000000	1.898074	5.694221
O	1.898074	0.000000	5.694221
O	1.898074	1.898074	3.796147
Ge	0.000000	3.796147	0.000000
Mn	1.898074	5.694221	1.898074
O	0.000000	5.694221	1.898074
O	1.898074	3.796147	1.898074
O	1.898074	5.694221	0.000000
Ge	0.000000	3.796147	3.796147
Mn	1.898074	5.694221	5.694221
O	0.000000	5.694221	5.694221
O	1.898074	3.796147	5.694221
O	1.898074	5.694221	3.796147
Ge	3.796147	0.000000	0.000000
Mn	5.694221	1.898074	1.898074
O	3.796147	1.898074	1.898074
O	5.694221	0.000000	1.898074
O	5.694221	1.898074	0.000000
Ge	3.796147	0.000000	3.796147
Mn	5.694221	1.898074	5.694221
O	3.796147	1.898074	5.694221
O	5.694221	0.000000	5.694221
O	5.694221	1.898074	3.796147
Ge	3.796147	3.796147	0.000000
Mn	5.694221	5.694221	1.898074
O	3.796147	5.694221	1.898074
O	5.694221	3.796147	1.898074
O	5.694221	5.694221	0.000000
Ge	3.796147	3.796147	3.796147
Mn	5.694221	5.694221	5.694221
O	3.796147	5.694221	5.694221
O	5.694221	3.796147	5.694221
O	5.694221	5.694221	3.796147
