40

Ge	1.853047	1.853047	1.853047
Mn	0.000000	0.000000	0.000000
O	1.853047	1.853047	0.000000
O	1.853047	0.000000	1.853047
O	0.000000	1.853047	1.853047
Ge	1.853047	1.853047	5.559143
Mn	0.000000	0.000000	3.706097
O	1.853047	1.853047	3.706097
O	1.853047	0.000000	5.559143
O	0.000000	1.853047	5.559143
Ge	1.853047	5.559143	1.853047
Mn	0.000000	3.706097	0.000000
O	1.853047	5.559143	0.000000
O	1.853047	3.706097	1.853047
O	0.000000	5.559143	1.853047
Ge	1.853047	5.559143	5.559143
Mn	0.000000	3.706097	3.706097
O	1.853047	5.559143	3.706097
O	1.853047	3.706097	5.559143
O	0.000000	5.559143	5.559143
Ge	5.559143	1.853047	1.853047
Mn	3.706097	0.000000	0.000000
O	5.559143	1.853047	0.000000
O	5.559143	0.000000	1.853047
O	3.706097	1.853047	1.853047
Ge	5.559143	1.853047	5.559143
Mn	3.706097	0.000000	3.706097
O	5.559143	1.853047	3.706097
O	5.559143	0.000000	5.559143
O	3.706097	1.853047	5.559143
Ge	5.559143	5.559143	1.853047
Mn	3.706097	3.706097	0.000000
O	5.559143	5.559143	0.000000
O	5.559143	3.706097	1.853047
O	3.706097	5.559143	1.853047
Ge	5.559143	5.559143	5.559143
Mn	3.706097	3.706097	3.706097
O	5.559143	5.559143	3.706097
O	5.559143	3.706097	5.559143
O	3.706097	5.559143	5.559143
