40

Br	0.000000	0.000000	0.000000
O	0.000000	1.994367	1.994367
O	1.994367	0.000000	1.994367
O	1.994367	1.994367	0.000000
W	1.994367	1.994367	1.994367
Br	0.000000	0.000000	3.988733
O	0.000000	1.994367	5.983100
O	1.994367	0.000000	5.983100
O	1.994367	1.994367	3.988733
W	1.994367	1.994367	5.983100
Br	0.000000	3.988733	0.000000
O	0.000000	5.983100	1.994367
O	1.994367	3.988733	1.994367
O	1.994367	5.983100	0.000000
W	1.994367	5.983100	1.994367
Br	0.000000	3.988733	3.988733
O	0.000000	5.983100	5.983100
O	1.994367	3.988733	5.983100
O	1.994367	5.983100	3.988733
W	1.994367	5.983100	5.983100
Br	3.988733	0.000000	0.000000
O	3.988733	1.994367	1.994367
O	5.983100	0.000000	1.994367
O	5.983100	1.994367	0.000000
W	5.983100	1.994367	1.994367
Br	3.988733	0.000000	3.988733
O	3.988733	1.994367	5.983100
O	5.983100	0.000000	5.983100
O	5.983100	1.994367	3.988733
W	5.983100	1.994367	5.983100
Br	3.988733	3.988733	0.000000
O	3.988733	5.983100	1.994367
O	5.983100	3.988733	1.994367
O	5.983100	5.983100	0.000000
W	5.983100	5.983100	1.994367
Br	3.988733	3.988733	3.988733
O	3.988733	5.983100	5.983100
O	5.983100	3.988733	5.983100
O	5.983100	5.983100	3.988733
W	5.983100	5.983100	5.983100
