40

Ac	2.314712	2.314712	2.314712
In	0.000000	0.000000	0.000000
O	2.314712	2.314712	0.000000
O	2.314712	0.000000	2.314712
O	0.000000	2.314712	2.314712
Ac	2.314712	2.314712	6.944135
In	0.000000	0.000000	4.629423
O	2.314712	2.314712	4.629423
O	2.314712	0.000000	6.944135
O	0.000000	2.314712	6.944135
Ac	2.314712	6.944135	2.314712
In	0.000000	4.629423	0.000000
O	2.314712	6.944135	0.000000
O	2.314712	4.629423	2.314712
O	0.000000	6.944135	2.314712
Ac	2.314712	6.944135	6.944135
In	0.000000	4.629423	4.629423
O	2.314712	6.944135	4.629423
O	2.314712	4.629423	6.944135
O	0.000000	6.944135	6.944135
Ac	6.944135	2.314712	2.314712
In	4.629423	0.000000	0.000000
O	6.944135	2.314712	0.000000
O	6.944135	0.000000	2.314712
O	4.629423	2.314712	2.314712
Ac	6.944135	2.314712	6.944135
In	4.629423	0.000000	4.629423
O	6.944135	2.314712	4.629423
O	6.944135	0.000000	6.944135
O	4.629423	2.314712	6.944135
Ac	6.944135	6.944135	2.314712
In	4.629423	4.629423	0.000000
O	6.944135	6.944135	0.000000
O	6.944135	4.629423	2.314712
O	4.629423	6.944135	2.314712
Ac	6.944135	6.944135	6.944135
In	4.629423	4.629423	4.629423
O	6.944135	6.944135	4.629423
O	6.944135	4.629423	6.944135
O	4.629423	6.944135	6.944135
