40

Fe	0.000000	0.000000	0.000000
O	2.062139	2.062139	0.000000
O	2.062139	0.000000	2.062139
O	0.000000	2.062139	2.062139
Yb	2.062139	2.062139	2.062139
Fe	0.000000	0.000000	4.124271
O	2.062139	2.062139	4.124271
O	2.062139	0.000000	6.186410
O	0.000000	2.062139	6.186410
Yb	2.062139	2.062139	6.186410
Fe	0.000000	4.124271	0.000000
O	2.062139	6.186410	0.000000
O	2.062139	4.124271	2.062139
O	0.000000	6.186410	2.062139
Yb	2.062139	6.186410	2.062139
Fe	0.000000	4.124271	4.124271
O	2.062139	6.186410	4.124271
O	2.062139	4.124271	6.186410
O	0.000000	6.186410	6.186410
Yb	2.062139	6.186410	6.186410
Fe	4.124271	0.000000	0.000000
O	6.186410	2.062139	0.000000
O	6.186410	0.000000	2.062139
O	4.124271	2.062139	2.062139
Yb	6.186410	2.062139	2.062139
Fe	4.124271	0.000000	4.124271
O	6.186410	2.062139	4.124271
O	6.186410	0.000000	6.186410
O	4.124271	2.062139	6.186410
Yb	6.186410	2.062139	6.186410
Fe	4.124271	4.124271	0.000000
O	6.186410	6.186410	0.000000
O	6.186410	4.124271	2.062139
O	4.124271	6.186410	2.062139
Yb	6.186410	6.186410	2.062139
Fe	4.124271	4.124271	4.124271
O	6.186410	6.186410	4.124271
O	6.186410	4.124271	6.186410
O	4.124271	6.186410	6.186410
Yb	6.186410	6.186410	6.186410
