40

Ba	2.152919	2.152919	2.152919
O	2.152919	0.000000	0.000000
O	0.000000	2.152919	0.000000
O	0.000000	0.000000	2.152919
Pb	-0.015000	0.000000	0.000000
Ba	2.152919	2.152919	6.458758
O	2.152919	0.000000	4.305838
O	0.000000	2.152919	4.305838
O	0.000000	0.000000	6.458758
Pb	-0.015000	0.000000	4.305838
Ba	2.152919	6.458758	2.152919
O	2.152919	4.305838	0.000000
O	0.000000	6.458758	0.000000
O	0.000000	4.305838	2.152919
Pb	-0.015000	4.305838	0.000000
Ba	2.152919	6.458758	6.458758
O	2.152919	4.305838	4.305838
O	0.000000	6.458758	4.305838
O	0.000000	4.305838	6.458758
Pb	-0.015000	4.305838	4.305838
Ba	6.458758	2.152919	2.152919
O	6.458758	0.000000	0.000000
O	4.305838	2.152919	0.000000
O	4.305838	0.000000	2.152919
Pb	4.290838	0.000000	0.000000
Ba	6.458758	2.152919	6.458758
O	6.458758	0.000000	4.305838
O	4.305838	2.152919	4.305838
O	4.305838	0.000000	6.458758
Pb	4.290838	0.000000	4.305838
Ba	6.458758	6.458758	2.152919
O	6.458758	4.305838	0.000000
O	4.305838	6.458758	0.000000
O	4.305838	4.305838	2.152919
Pb	4.290838	4.305838	0.000000
Ba	6.458758	6.458758	6.458758
O	6.458758	4.305838	4.305838
O	4.305838	6.458758	4.305838
O	4.305838	4.305838	6.458758
Pb	4.290838	4.305838	4.305838
