40

Bi	2.019454	2.019454	2.019454
O	2.019454	0.000000	0.000000
O	0.000000	2.019454	0.000000
O	0.000000	0.000000	2.019454
Sc	0.000000	0.000000	0.000000
Bi	2.019454	2.019454	6.058361
O	2.019454	0.000000	4.038907
O	0.000000	2.019454	4.038907
O	0.000000	0.000000	6.058361
Sc	0.000000	0.000000	4.038907
Bi	2.019454	6.058361	2.019454
O	2.019454	4.038907	0.000000
O	0.000000	6.058361	0.000000
O	0.000000	4.038907	2.019454
Sc	0.000000	4.038907	0.000000
Bi	2.019454	6.058361	6.058361
O	2.019454	4.038907	4.038907
O	0.000000	6.058361	4.038907
O	0.000000	4.038907	6.058361
Sc	0.000000	4.038907	4.038907
Bi	6.058361	2.019454	2.019454
O	6.058361	0.000000	0.000000
O	4.038907	2.019454	0.000000
O	4.038907	0.000000	2.019454
Sc	4.038907	0.000000	0.000000
Bi	6.058361	2.019454	6.058361
O	6.058361	0.000000	4.038907
O	4.038907	2.019454	4.038907
O	4.038907	0.000000	6.058361
Sc	4.038907	0.000000	4.038907
Bi	6.058361	6.058361	2.019454
O	6.058361	4.038907	0.000000
O	4.038907	6.058361	0.000000
O	4.038907	4.038907	2.019454
Sc	4.038907	4.038907	0.000000
Bi	6.058361	6.058361	6.058361
O	6.058361	4.038907	4.038907
O	4.038907	6.058361	4.038907
O	4.038907	4.038907	6.058361
Sc	4.038907	4.038907	4.038907
