112

O	3.522742	-1.160685	-1.160685
O	-1.160929	1.160685	-3.523697
O	1.160929	-1.160685	-3.523697
O	1.180907	1.181506	-1.181506
O	5.844601	1.160685	-1.160685
O	1.180907	3.502876	-3.502876
O	3.502765	3.502876	-1.181506
O	3.502765	1.181506	-3.502876
Sb	0.000000	0.000000	0.000000
Sb	2.341836	-2.342191	-2.342191
Yb	-1.170918	-1.171095	-3.513286
Yb	3.512754	1.171095	-1.171095
Yb	5.854589	-1.171095	-1.171095
Yb	1.170918	1.171095	-3.513286
O	8.206414	3.523697	-1.160685
O	3.522742	5.845066	-3.523697
O	5.844601	3.523697	-3.523697
O	5.864578	5.865888	-1.181506
O	10.528272	5.845066	-1.160685
O	5.864578	8.187257	-3.502876
O	8.186436	8.187257	-1.181506
O	8.186437	5.865888	-3.502876
Sb	4.683672	4.684382	0.000000
Sb	7.025507	2.342191	-2.342191
Yb	3.512754	3.513286	-3.513286
Yb	8.196425	5.855477	-1.171095
Yb	10.538261	3.513286	-1.171095
Yb	5.854589	5.855477	-3.513286
O	-1.160929	-1.160685	-5.845066
O	-5.844601	1.160685	-8.208078
O	-3.522742	-1.160685	-8.208078
O	-3.502765	1.181506	-5.865888
O	1.160929	1.160685	-5.845066
O	-3.502765	3.502876	-8.187257
O	-1.180907	3.502876	-5.865888
O	-1.180907	1.181506	-8.187257
Sb	-4.683672	0.000000	-4.684382
Sb	-2.341836	-2.342191	-7.026572
Yb	-5.854589	-1.171095	-8.197668
Yb	-1.170918	1.171095	-5.855477
Yb	1.170918	-1.171095	-5.855477
Yb	-3.512754	1.171095	-8.197668
O	3.522742	3.523697	-5.845066
O	-1.160929	5.845066	-8.208078
O	1.160929	3.523697	-8.208078
O	1.180907	5.865888	-5.865888
O	5.844601	5.845066	-5.845066
O	1.180907	8.187257	-8.187257
O	3.502765	8.187257	-5.865888
O	3.502765	5.865888	-8.187257
Sb	0.000000	4.684382	-4.684382
Sb	2.341836	2.342191	-7.026572
Yb	-1.170918	3.513286	-8.197668
Yb	3.512754	5.855477	-5.855477
Yb	5.854589	3.513286	-5.855477
Yb	1.170918	5.855477	-8.197668
O	8.206414	-5.845066	-1.160685
O	3.522742	-3.523697	-3.523697
O	5.844601	-5.845066	-3.523697
O	5.864578	-3.502876	-1.181506
O	10.528272	-3.523697	-1.160685
O	5.864578	-1.181506	-3.502876
O	8.186436	-1.181506	-1.181506
O	8.186437	-3.502876	-3.502876
Sb	4.683672	-4.684382	0.000000
Sb	7.025507	-7.026572	-2.342191
Yb	3.512754	-5.855477	-3.513286
Yb	8.196425	-3.513286	-1.171095
Yb	10.538261	-5.855477	-1.171095
Yb	5.854589	-3.513286	-3.513286
O	12.890086	-1.160685	-1.160685
O	8.206414	1.160685	-3.523697
O	10.528272	-1.160685	-3.523697
O	10.548250	1.181506	-1.181506
O	15.211944	1.160685	-1.160685
O	10.548250	3.502876	-3.502876
O	12.870108	3.502876	-1.181506
O	12.870108	1.181506	-3.502876
Sb	9.367343	0.000000	0.000000
Sb	11.709179	-2.342191	-2.342191
Yb	8.196425	-1.171095	-3.513286
Yb	12.880097	1.171095	-1.171095
Yb	15.221933	-1.171095	-1.171095
Yb	10.538261	1.171095	-3.513286
O	3.522742	-5.845066	-5.845066
O	-1.160929	-3.523697	-8.208078
O	1.160929	-5.845066	-8.208078
O	1.180907	-3.502876	-5.865888
O	5.844601	-3.523697	-5.845066
O	1.180907	-1.181506	-8.187257
O	3.502765	-1.181506	-5.865888
O	3.502765	-3.502876	-8.187257
Sb	0.000000	-4.684382	-4.684382
Sb	2.341836	-7.026572	-7.026572
Yb	-1.170918	-5.855477	-8.197668
Yb	3.512754	-3.513286	-5.855477
Yb	5.854589	-5.855477	-5.855477
Yb	1.170918	-3.513286	-8.197668
O	8.206414	-1.160685	-5.845066
O	3.522742	1.160685	-8.208078
O	5.844601	-1.160685	-8.208078
O	5.864578	1.181506	-5.865888
O	10.528272	1.160685	-5.845066
O	5.864578	3.502876	-8.187257
O	8.186436	3.502876	-5.865888
O	8.186437	1.181506	-8.187257
Sb	4.683672	0.000000	-4.684382
Sb	7.025507	-2.342191	-7.026572
Yb	3.512754	-1.171095	-8.197668
Yb	8.196425	1.171095	-5.855477
Yb	10.538261	-1.171095	-5.855477
Yb	5.854589	1.171095	-8.197668
