40

Al	1.866220	1.866220	1.866220
O	1.866220	1.866220	0.000000
O	0.000000	1.866220	1.866220
O	1.866220	0.000000	1.866220
Pm_3	0.000000	0.000000	0.000000
Al	1.866220	1.866220	5.598659
O	1.866220	1.866220	3.732439
O	0.000000	1.866220	5.598659
O	1.866220	0.000000	5.598659
Pm_3	0.000000	0.000000	3.732439
Al	1.866220	5.598659	1.866220
O	1.866220	5.598659	0.000000
O	0.000000	5.598659	1.866220
O	1.866220	3.732439	1.866220
Pm_3	0.000000	3.732439	0.000000
Al	1.866220	5.598659	5.598659
O	1.866220	5.598659	3.732439
O	0.000000	5.598659	5.598659
O	1.866220	3.732439	5.598659
Pm_3	0.000000	3.732439	3.732439
Al	5.598659	1.866220	1.866220
O	5.598659	1.866220	0.000000
O	3.732439	1.866220	1.866220
O	5.598659	0.000000	1.866220
Pm_3	3.732439	0.000000	0.000000
Al	5.598659	1.866220	5.598659
O	5.598659	1.866220	3.732439
O	3.732439	1.866220	5.598659
O	5.598659	0.000000	5.598659
Pm_3	3.732439	0.000000	3.732439
Al	5.598659	5.598659	1.866220
O	5.598659	5.598659	0.000000
O	3.732439	5.598659	1.866220
O	5.598659	3.732439	1.866220
Pm_3	3.732439	3.732439	0.000000
Al	5.598659	5.598659	5.598659
O	5.598659	5.598659	3.732439
O	3.732439	5.598659	5.598659
O	5.598659	3.732439	5.598659
Pm_3	3.732439	3.732439	3.732439
