40

Ho	2.129447	2.129447	2.129447
Nb	0.000000	0.000000	0.000000
O	2.129447	2.129447	0.000000
O	2.129447	0.000000	2.129447
O	0.000000	2.129447	2.129447
Ho	2.129447	2.129447	6.388341
Nb	0.000000	0.000000	4.258894
O	2.129447	2.129447	4.258894
O	2.129447	0.000000	6.388341
O	0.000000	2.129447	6.388341
Ho	2.129447	6.388341	2.129447
Nb	0.000000	4.258894	0.000000
O	2.129447	6.388341	0.000000
O	2.129447	4.258894	2.129447
O	0.000000	6.388341	2.129447
Ho	2.129447	6.388341	6.388341
Nb	0.000000	4.258894	4.258894
O	2.129447	6.388341	4.258894
O	2.129447	4.258894	6.388341
O	0.000000	6.388341	6.388341
Ho	6.388341	2.129447	2.129447
Nb	4.258894	0.000000	0.000000
O	6.388341	2.129447	0.000000
O	6.388341	0.000000	2.129447
O	4.258894	2.129447	2.129447
Ho	6.388341	2.129447	6.388341
Nb	4.258894	0.000000	4.258894
O	6.388341	2.129447	4.258894
O	6.388341	0.000000	6.388341
O	4.258894	2.129447	6.388341
Ho	6.388341	6.388341	2.129447
Nb	4.258894	4.258894	0.000000
O	6.388341	6.388341	0.000000
O	6.388341	4.258894	2.129447
O	4.258894	6.388341	2.129447
Ho	6.388341	6.388341	6.388341
Nb	4.258894	4.258894	4.258894
O	6.388341	6.388341	4.258894
O	6.388341	4.258894	6.388341
O	4.258894	6.388341	6.388341
