112

O	3.817856	-1.167831	-1.167831
O	-1.168341	1.167831	-3.819360
O	1.168341	-1.167831	-3.819360
O	1.324758	1.325765	-1.325765
O	6.154537	1.167831	-1.167831
O	1.324757	3.661426	-3.661427
O	3.661439	3.661426	-1.325765
O	3.661439	1.325765	-3.661427
Pr	0.000000	0.000000	0.000000
Pr	2.493098	-2.493596	-2.493596
Sn	-1.246549	-1.246798	-3.740393
Sn	3.739647	1.246798	-1.246798
Sn	6.232746	-1.246798	-1.246798
Sn	1.246549	1.246798	-3.740393
O	8.804052	3.819360	-1.167831
O	3.817856	6.155022	-3.819360
O	6.154537	3.819360	-3.819360
O	6.310954	6.312956	-1.325765
O	11.140734	6.155022	-1.167831
O	6.310954	8.648618	-3.661427
O	8.647636	8.648618	-1.325765
O	8.647636	6.312956	-3.661427
Pr	4.986197	4.987191	0.000000
Pr	7.479295	2.493596	-2.493596
Sn	3.739647	3.740393	-3.740393
Sn	8.725844	6.233989	-1.246798
Sn	11.218942	3.740393	-1.246798
Sn	6.232746	6.233989	-3.740393
O	-1.168341	-1.167831	-6.155022
O	-6.154537	1.167831	-8.806552
O	-3.817856	-1.167831	-8.806552
O	-3.661439	1.325765	-6.312956
O	1.168341	1.167831	-6.155022
O	-3.661439	3.661426	-8.648618
O	-1.324757	3.661426	-6.312956
O	-1.324758	1.325765	-8.648618
Pr	-4.986197	0.000000	-4.987191
Pr	-2.493098	-2.493596	-7.480787
Sn	-6.232746	-1.246798	-8.727585
Sn	-1.246549	1.246798	-6.233989
Sn	1.246549	-1.246798	-6.233989
Sn	-3.739647	1.246798	-8.727585
O	3.817856	3.819360	-6.155022
O	-1.168341	6.155022	-8.806552
O	1.168341	3.819360	-8.806552
O	1.324758	6.312956	-6.312956
O	6.154537	6.155022	-6.155022
O	1.324757	8.648618	-8.648618
O	3.661439	8.648618	-6.312956
O	3.661439	6.312956	-8.648618
Pr	0.000000	4.987191	-4.987191
Pr	2.493098	2.493596	-7.480787
Sn	-1.246549	3.740393	-8.727585
Sn	3.739647	6.233989	-6.233989
Sn	6.232746	3.740393	-6.233989
Sn	1.246549	6.233989	-8.727585
O	8.804052	-6.155022	-1.167831
O	3.817856	-3.819360	-3.819360
O	6.154537	-6.155022	-3.819360
O	6.310954	-3.661427	-1.325765
O	11.140734	-3.819360	-1.167831
O	6.310954	-1.325765	-3.661427
O	8.647636	-1.325765	-1.325765
O	8.647636	-3.661427	-3.661427
Pr	4.986197	-4.987191	0.000000
Pr	7.479295	-7.480787	-2.493596
Sn	3.739647	-6.233989	-3.740393
Sn	8.725844	-3.740393	-1.246798
Sn	11.218942	-6.233989	-1.246798
Sn	6.232746	-3.740393	-3.740393
O	13.790249	-1.167831	-1.167831
O	8.804052	1.167831	-3.819360
O	11.140734	-1.167831	-3.819360
O	11.297151	1.325765	-1.325765
O	16.126930	1.167831	-1.167831
O	11.297151	3.661426	-3.661427
O	13.633832	3.661426	-1.325765
O	13.633832	1.325765	-3.661427
Pr	9.972393	0.000000	0.000000
Pr	12.465491	-2.493596	-2.493596
Sn	8.725844	-1.246798	-3.740393
Sn	13.712041	1.246798	-1.246798
Sn	16.205139	-1.246798	-1.246798
Sn	11.218942	1.246798	-3.740393
O	3.817856	-6.155022	-6.155022
O	-1.168341	-3.819360	-8.806552
O	1.168341	-6.155022	-8.806552
O	1.324758	-3.661427	-6.312956
O	6.154537	-3.819360	-6.155022
O	1.324757	-1.325765	-8.648618
O	3.661439	-1.325765	-6.312956
O	3.661439	-3.661427	-8.648618
Pr	0.000000	-4.987191	-4.987191
Pr	2.493098	-7.480787	-7.480787
Sn	-1.246549	-6.233989	-8.727585
Sn	3.739647	-3.740393	-6.233989
Sn	6.232746	-6.233989	-6.233989
Sn	1.246549	-3.740393	-8.727585
O	8.804052	-1.167831	-6.155022
O	3.817856	1.167831	-8.806552
O	6.154537	-1.167831	-8.806552
O	6.310954	1.325765	-6.312956
O	11.140734	1.167831	-6.155022
O	6.310954	3.661426	-8.648618
O	8.647636	3.661426	-6.312956
O	8.647636	1.325765	-8.648618
Pr	4.986197	0.000000	-4.987191
Pr	7.479295	-2.493596	-7.480787
Sn	3.739647	-1.246798	-8.727585
Sn	8.725844	1.246798	-6.233989
Sn	11.218942	-1.246798	-6.233989
Sn	6.232746	1.246798	-8.727585
