40

N	1.752492	1.752492	1.752492
O	0.000000	1.752492	1.752492
O	1.752492	0.000000	1.752492
O	1.752492	1.752492	0.000000
P	0.000000	0.000000	0.000000
N	1.752492	1.752492	5.257476
O	0.000000	1.752492	5.257476
O	1.752492	0.000000	5.257476
O	1.752492	1.752492	3.504984
P	0.000000	0.000000	3.504984
N	1.752492	5.257476	1.752492
O	0.000000	5.257476	1.752492
O	1.752492	3.504984	1.752492
O	1.752492	5.257476	0.000000
P	0.000000	3.504984	0.000000
N	1.752492	5.257476	5.257476
O	0.000000	5.257476	5.257476
O	1.752492	3.504984	5.257476
O	1.752492	5.257476	3.504984
P	0.000000	3.504984	3.504984
N	5.257476	1.752492	1.752492
O	3.504984	1.752492	1.752492
O	5.257476	0.000000	1.752492
O	5.257476	1.752492	0.000000
P	3.504984	0.000000	0.000000
N	5.257476	1.752492	5.257476
O	3.504984	1.752492	5.257476
O	5.257476	0.000000	5.257476
O	5.257476	1.752492	3.504984
P	3.504984	0.000000	3.504984
N	5.257476	5.257476	1.752492
O	3.504984	5.257476	1.752492
O	5.257476	3.504984	1.752492
O	5.257476	5.257476	0.000000
P	3.504984	3.504984	0.000000
N	5.257476	5.257476	5.257476
O	3.504984	5.257476	5.257476
O	5.257476	3.504984	5.257476
O	5.257476	5.257476	3.504984
P	3.504984	3.504984	3.504984
