40

Cu	0.000000	0.000000	0.000000
Mo	1.952160	1.952160	1.952160
O	0.000000	1.952160	1.952160
O	1.952160	0.000000	1.952160
O	1.952160	1.952160	0.000000
Cu	0.000000	0.000000	3.904320
Mo	1.952160	1.952160	5.856481
O	0.000000	1.952160	5.856481
O	1.952160	0.000000	5.856481
O	1.952160	1.952160	3.904320
Cu	0.000000	3.904320	0.000000
Mo	1.952160	5.856481	1.952160
O	0.000000	5.856481	1.952160
O	1.952160	3.904320	1.952160
O	1.952160	5.856481	0.000000
Cu	0.000000	3.904320	3.904320
Mo	1.952160	5.856481	5.856481
O	0.000000	5.856481	5.856481
O	1.952160	3.904320	5.856481
O	1.952160	5.856481	3.904320
Cu	3.904320	0.000000	0.000000
Mo	5.856481	1.952160	1.952160
O	3.904320	1.952160	1.952160
O	5.856481	0.000000	1.952160
O	5.856481	1.952160	0.000000
Cu	3.904320	0.000000	3.904320
Mo	5.856481	1.952160	5.856481
O	3.904320	1.952160	5.856481
O	5.856481	0.000000	5.856481
O	5.856481	1.952160	3.904320
Cu	3.904320	3.904320	0.000000
Mo	5.856481	5.856481	1.952160
O	3.904320	5.856481	1.952160
O	5.856481	3.904320	1.952160
O	5.856481	5.856481	0.000000
Cu	3.904320	3.904320	3.904320
Mo	5.856481	5.856481	5.856481
O	3.904320	5.856481	5.856481
O	5.856481	3.904320	5.856481
O	5.856481	5.856481	3.904320
