40

O	2.069419	2.069419	0.000000
O	2.069419	0.000000	2.069419
O	0.000000	2.069419	2.069419
Ti	0.000000	0.000000	0.000000
Yb	2.069419	2.069419	2.069419
O	2.069419	2.069419	4.138838
O	2.069419	0.000000	6.208256
O	0.000000	2.069419	6.208256
Ti	0.000000	0.000000	4.138838
Yb	2.069419	2.069419	6.208256
O	2.069419	6.208256	0.000000
O	2.069419	4.138838	2.069419
O	0.000000	6.208256	2.069419
Ti	0.000000	4.138838	0.000000
Yb	2.069419	6.208256	2.069419
O	2.069419	6.208256	4.138838
O	2.069419	4.138838	6.208256
O	0.000000	6.208256	6.208256
Ti	0.000000	4.138838	4.138838
Yb	2.069419	6.208256	6.208256
O	6.208256	2.069419	0.000000
O	6.208256	0.000000	2.069419
O	4.138838	2.069419	2.069419
Ti	4.138838	0.000000	0.000000
Yb	6.208256	2.069419	2.069419
O	6.208256	2.069419	4.138838
O	6.208256	0.000000	6.208256
O	4.138838	2.069419	6.208256
Ti	4.138838	0.000000	4.138838
Yb	6.208256	2.069419	6.208256
O	6.208256	6.208256	0.000000
O	6.208256	4.138838	2.069419
O	4.138838	6.208256	2.069419
Ti	4.138838	4.138838	0.000000
Yb	6.208256	6.208256	2.069419
O	6.208256	6.208256	4.138838
O	6.208256	4.138838	6.208256
O	4.138838	6.208256	6.208256
Ti	4.138838	4.138838	4.138838
Yb	6.208256	6.208256	6.208256
