40

O	1.908300	1.908300	0.000000
O	0.000000	1.908300	1.908300
O	1.908300	0.000000	1.908300
Ti	1.908300	1.908300	1.908300
Yb_2	0.000000	0.000000	0.000000
O	1.908300	1.908300	3.816610
O	0.000000	1.908300	5.724910
O	1.908300	0.000000	5.724910
Ti	1.908300	1.908300	5.724910
Yb_2	0.000000	0.000000	3.816610
O	1.908300	5.724910	0.000000
O	0.000000	5.724910	1.908300
O	1.908300	3.816610	1.908300
Ti	1.908300	5.724910	1.908300
Yb_2	0.000000	3.816610	0.000000
O	1.908300	5.724910	3.816610
O	0.000000	5.724910	5.724910
O	1.908300	3.816610	5.724910
Ti	1.908300	5.724910	5.724910
Yb_2	0.000000	3.816610	3.816610
O	5.724910	1.908300	0.000000
O	3.816610	1.908300	1.908300
O	5.724910	0.000000	1.908300
Ti	5.724910	1.908300	1.908300
Yb_2	3.816610	0.000000	0.000000
O	5.724910	1.908300	3.816610
O	3.816610	1.908300	5.724910
O	5.724910	0.000000	5.724910
Ti	5.724910	1.908300	5.724910
Yb_2	3.816610	0.000000	3.816610
O	5.724910	5.724910	0.000000
O	3.816610	5.724910	1.908300
O	5.724910	3.816610	1.908300
Ti	5.724910	5.724910	1.908300
Yb_2	3.816610	3.816610	0.000000
O	5.724910	5.724910	3.816610
O	3.816610	5.724910	5.724910
O	5.724910	3.816610	5.724910
Ti	5.724910	5.724910	5.724910
Yb_2	3.816610	3.816610	3.816610
