40

Cu	1.861563	1.861563	1.861563
Ga	0.000000	0.000000	0.000000
O	1.861563	1.861563	0.000000
O	1.861563	0.000000	1.861563
O	0.000000	1.861563	1.861563
Cu	1.861563	1.861563	5.584688
Ga	0.000000	0.000000	3.723125
O	1.861563	1.861563	3.723125
O	1.861563	0.000000	5.584688
O	0.000000	1.861563	5.584688
Cu	1.861563	5.584688	1.861563
Ga	0.000000	3.723125	0.000000
O	1.861563	5.584688	0.000000
O	1.861563	3.723125	1.861563
O	0.000000	5.584688	1.861563
Cu	1.861563	5.584688	5.584688
Ga	0.000000	3.723125	3.723125
O	1.861563	5.584688	3.723125
O	1.861563	3.723125	5.584688
O	0.000000	5.584688	5.584688
Cu	5.584688	1.861563	1.861563
Ga	3.723125	0.000000	0.000000
O	5.584688	1.861563	0.000000
O	5.584688	0.000000	1.861563
O	3.723125	1.861563	1.861563
Cu	5.584688	1.861563	5.584688
Ga	3.723125	0.000000	3.723125
O	5.584688	1.861563	3.723125
O	5.584688	0.000000	5.584688
O	3.723125	1.861563	5.584688
Cu	5.584688	5.584688	1.861563
Ga	3.723125	3.723125	0.000000
O	5.584688	5.584688	0.000000
O	5.584688	3.723125	1.861563
O	3.723125	5.584688	1.861563
Cu	5.584688	5.584688	5.584688
Ga	3.723125	3.723125	3.723125
O	5.584688	5.584688	3.723125
O	5.584688	3.723125	5.584688
O	3.723125	5.584688	5.584688
