112

Cd	0.000000	0.000000	0.000000
Cd	2.263228	-2.263485	-2.263485
Ge	-1.131614	-1.131742	-3.395227
Ge	3.394842	1.131742	-1.131742
Ge	5.658070	-1.131742	-1.131742
Ge	1.131614	1.131742	-3.395227
O	3.550550	-0.975250	-0.975250
O	-0.975906	0.975250	-3.551720
O	0.975906	-0.975250	-3.551720
O	1.287322	1.288235	-1.288235
O	5.502362	0.975250	-0.975250
O	1.287322	3.238734	-3.238734
O	3.239134	3.238734	-1.288235
O	3.239134	1.288235	-3.238734
Cd	4.526456	4.526970	0.000000
Cd	6.789684	2.263485	-2.263485
Ge	3.394842	3.395227	-3.395227
Ge	7.921298	5.658712	-1.131742
Ge	10.184526	3.395227	-1.131742
Ge	5.658070	5.658712	-3.395227
O	8.077006	3.551720	-0.975250
O	3.550550	5.502219	-3.551720
O	5.502362	3.551720	-3.551720
O	5.813778	5.815205	-1.288235
O	10.028818	5.502219	-0.975250
O	5.813778	7.765704	-3.238734
O	7.765590	7.765704	-1.288235
O	7.765590	5.815205	-3.238734
Cd	-4.526456	0.000000	-4.526970
Cd	-2.263228	-2.263485	-6.790455
Ge	-5.658070	-1.131742	-7.922197
Ge	-1.131614	1.131742	-5.658712
Ge	1.131614	-1.131742	-5.658712
Ge	-3.394842	1.131742	-7.922197
O	-0.975906	-0.975250	-5.502219
O	-5.502362	0.975250	-8.078690
O	-3.550550	-0.975250	-8.078690
O	-3.239134	1.288235	-5.815205
O	0.975906	0.975250	-5.502219
O	-3.239134	3.238734	-7.765704
O	-1.287322	3.238734	-5.815205
O	-1.287322	1.288235	-7.765704
Cd	0.000000	4.526970	-4.526970
Cd	2.263228	2.263485	-6.790455
Ge	-1.131614	3.395227	-7.922197
Ge	3.394842	5.658712	-5.658712
Ge	5.658070	3.395227	-5.658712
Ge	1.131614	5.658712	-7.922197
O	3.550550	3.551720	-5.502219
O	-0.975906	5.502219	-8.078690
O	0.975906	3.551720	-8.078690
O	1.287322	5.815205	-5.815205
O	5.502362	5.502219	-5.502219
O	1.287322	7.765704	-7.765704
O	3.239134	7.765704	-5.815205
O	3.239134	5.815205	-7.765704
Cd	4.526456	-4.526970	0.000000
Cd	6.789684	-6.790455	-2.263485
Ge	3.394842	-5.658712	-3.395227
Ge	7.921298	-3.395227	-1.131742
Ge	10.184526	-5.658712	-1.131742
Ge	5.658070	-3.395227	-3.395227
O	8.077006	-5.502219	-0.975250
O	3.550550	-3.551720	-3.551720
O	5.502362	-5.502219	-3.551720
O	5.813778	-3.238734	-1.288235
O	10.028818	-3.551720	-0.975250
O	5.813778	-1.288235	-3.238734
O	7.765590	-1.288235	-1.288235
O	7.765590	-3.238734	-3.238734
Cd	9.052912	0.000000	0.000000
Cd	11.316140	-2.263485	-2.263485
Ge	7.921298	-1.131742	-3.395227
Ge	12.447754	1.131742	-1.131742
Ge	14.710982	-1.131742	-1.131742
Ge	10.184526	1.131742	-3.395227
O	12.603462	-0.975250	-0.975250
O	8.077006	0.975250	-3.551720
O	10.028818	-0.975250	-3.551720
O	10.340234	1.288235	-1.288235
O	14.555274	0.975250	-0.975250
O	10.340234	3.238734	-3.238734
O	12.292046	3.238734	-1.288235
O	12.292046	1.288235	-3.238734
Cd	0.000000	-4.526970	-4.526970
Cd	2.263228	-6.790455	-6.790455
Ge	-1.131614	-5.658712	-7.922197
Ge	3.394842	-3.395227	-5.658712
Ge	5.658070	-5.658712	-5.658712
Ge	1.131614	-3.395227	-7.922197
O	3.550550	-5.502219	-5.502219
O	-0.975906	-3.551720	-8.078690
O	0.975906	-5.502219	-8.078690
O	1.287322	-3.238734	-5.815205
O	5.502362	-3.551720	-5.502219
O	1.287322	-1.288235	-7.765704
O	3.239134	-1.288235	-5.815205
O	3.239134	-3.238734	-7.765704
Cd	4.526456	0.000000	-4.526970
Cd	6.789684	-2.263485	-6.790455
Ge	3.394842	-1.131742	-7.922197
Ge	7.921298	1.131742	-5.658712
Ge	10.184526	-1.131742	-5.658712
Ge	5.658070	1.131742	-7.922197
O	8.077006	-0.975250	-5.502219
O	3.550550	0.975250	-8.078690
O	5.502362	-0.975250	-8.078690
O	5.813778	1.288235	-5.815205
O	10.028818	0.975250	-5.502219
O	5.813778	3.238734	-7.765704
O	7.765590	3.238734	-5.815205
O	7.765590	1.288235	-7.765704
