40

O	1.970660	1.970660	0.000000
O	1.970660	0.000000	1.970660
O	0.000000	1.970660	1.970660
Pt	1.970660	1.970660	1.970660
Ti	0.000000	0.000000	0.000000
O	1.970660	1.970660	3.941328
O	1.970660	0.000000	5.911988
O	0.000000	1.970660	5.911988
Pt	1.970660	1.970660	5.911988
Ti	0.000000	0.000000	3.941328
O	1.970660	5.911988	0.000000
O	1.970660	3.941328	1.970660
O	0.000000	5.911988	1.970660
Pt	1.970660	5.911988	1.970660
Ti	0.000000	3.941328	0.000000
O	1.970660	5.911988	3.941328
O	1.970660	3.941328	5.911988
O	0.000000	5.911988	5.911988
Pt	1.970660	5.911988	5.911988
Ti	0.000000	3.941328	3.941328
O	5.911988	1.970660	0.000000
O	5.911988	0.000000	1.970660
O	3.941328	1.970660	1.970660
Pt	5.911988	1.970660	1.970660
Ti	3.941328	0.000000	0.000000
O	5.911988	1.970660	3.941328
O	5.911988	0.000000	5.911988
O	3.941328	1.970660	5.911988
Pt	5.911988	1.970660	5.911988
Ti	3.941328	0.000000	3.941328
O	5.911988	5.911988	0.000000
O	5.911988	3.941328	1.970660
O	3.941328	5.911988	1.970660
Pt	5.911988	5.911988	1.970660
Ti	3.941328	3.941328	0.000000
O	5.911988	5.911988	3.941328
O	5.911988	3.941328	5.911988
O	3.941328	5.911988	5.911988
Pt	5.911988	5.911988	5.911988
Ti	3.941328	3.941328	3.941328
