40

O	0.000000	1.954628	1.954628
O	1.954628	0.000000	1.954628
O	1.954628	1.954628	0.000000
Pt	0.000000	0.000000	0.000000
Ti	1.954628	1.954628	1.954628
O	0.000000	1.954628	5.863885
O	1.954628	0.000000	5.863885
O	1.954628	1.954628	3.909256
Pt	0.000000	0.000000	3.909256
Ti	1.954628	1.954628	5.863885
O	0.000000	5.863885	1.954628
O	1.954628	3.909256	1.954628
O	1.954628	5.863885	0.000000
Pt	0.000000	3.909256	0.000000
Ti	1.954628	5.863885	1.954628
O	0.000000	5.863885	5.863885
O	1.954628	3.909256	5.863885
O	1.954628	5.863885	3.909256
Pt	0.000000	3.909256	3.909256
Ti	1.954628	5.863885	5.863885
O	3.909256	1.954628	1.954628
O	5.863885	0.000000	1.954628
O	5.863885	1.954628	0.000000
Pt	3.909256	0.000000	0.000000
Ti	5.863885	1.954628	1.954628
O	3.909256	1.954628	5.863885
O	5.863885	0.000000	5.863885
O	5.863885	1.954628	3.909256
Pt	3.909256	0.000000	3.909256
Ti	5.863885	1.954628	5.863885
O	3.909256	5.863885	1.954628
O	5.863885	3.909256	1.954628
O	5.863885	5.863885	0.000000
Pt	3.909256	3.909256	0.000000
Ti	5.863885	5.863885	1.954628
O	3.909256	5.863885	5.863885
O	5.863885	3.909256	5.863885
O	5.863885	5.863885	3.909256
Pt	3.909256	3.909256	3.909256
Ti	5.863885	5.863885	5.863885
