40

Ag	0.000000	0.000000	0.000000
Lu_3	2.110310	2.110310	2.110310
O	2.110310	0.000000	2.110310
O	0.000000	2.110310	2.110310
O	2.110310	2.110310	0.000000
Ag	0.000000	0.000000	4.220620
Lu_3	2.110310	2.110310	6.330930
O	2.110310	0.000000	6.330930
O	0.000000	2.110310	6.330930
O	2.110310	2.110310	4.220620
Ag	0.000000	4.220620	0.000000
Lu_3	2.110310	6.330930	2.110310
O	2.110310	4.220620	2.110310
O	0.000000	6.330930	2.110310
O	2.110310	6.330930	0.000000
Ag	0.000000	4.220620	4.220620
Lu_3	2.110310	6.330930	6.330930
O	2.110310	4.220620	6.330930
O	0.000000	6.330930	6.330930
O	2.110310	6.330930	4.220620
Ag	4.220620	0.000000	0.000000
Lu_3	6.330930	2.110310	2.110310
O	6.330930	0.000000	2.110310
O	4.220620	2.110310	2.110310
O	6.330930	2.110310	0.000000
Ag	4.220620	0.000000	4.220620
Lu_3	6.330930	2.110310	6.330930
O	6.330930	0.000000	6.330930
O	4.220620	2.110310	6.330930
O	6.330930	2.110310	4.220620
Ag	4.220620	4.220620	0.000000
Lu_3	6.330930	6.330930	2.110310
O	6.330930	4.220620	2.110310
O	4.220620	6.330930	2.110310
O	6.330930	6.330930	0.000000
Ag	4.220620	4.220620	4.220620
Lu_3	6.330930	6.330930	6.330930
O	6.330930	4.220620	6.330930
O	4.220620	6.330930	6.330930
O	6.330930	6.330930	4.220620
