112

Eu	0.000000	0.000000	0.000000
Eu	2.315521	-2.316088	-2.316088
Hf	-1.157761	-1.158044	-3.474142
Hf	5.788813	-1.158044	-1.158044
Hf	3.473292	1.158044	-1.158044
Hf	1.157761	1.158044	-3.474142
O	3.631389	-0.999233	-0.999233
O	-0.999663	0.999233	-3.632953
O	0.999663	-0.999233	-3.632953
O	1.315868	1.316855	-1.316855
O	5.630716	0.999233	-0.999233
O	1.315868	3.315332	-3.315332
O	3.315184	3.315332	-1.316855
O	3.315184	1.316855	-3.315332
Eu	4.631050	4.632185	0.000000
Eu	6.946572	2.316096	-2.316088
Hf	3.473290	3.474140	-3.474142
Hf	10.419863	3.474140	-1.158044
Hf	8.104342	5.790229	-1.158044
Hf	5.788811	5.790229	-3.474142
O	8.262440	3.632951	-0.999233
O	3.631387	5.631418	-3.632953
O	5.630714	3.632951	-3.632953
O	5.946918	5.949040	-1.316855
O	10.261766	5.631418	-0.999233
O	5.946918	7.947516	-3.315332
O	7.946235	7.947516	-1.316855
O	7.946235	5.949040	-3.315332
Eu	-4.631050	0.000000	-4.632185
Eu	-2.315529	-2.316088	-6.948273
Hf	-5.788811	-1.158044	-8.106327
Hf	1.157763	-1.158044	-5.790229
Hf	-1.157759	1.158044	-5.790229
Hf	-3.473290	1.158044	-8.106327
O	-0.999661	-0.999233	-5.631418
O	-5.630714	0.999233	-8.265138
O	-3.631387	-0.999233	-8.265138
O	-3.315183	1.316855	-5.949040
O	0.999665	0.999233	-5.631418
O	-3.315182	3.315332	-7.947516
O	-1.315866	3.315332	-5.949040
O	-1.315866	1.316855	-7.947516
Eu	0.000000	4.632185	-4.632185
Eu	2.315521	2.316096	-6.948273
Hf	-1.157761	3.474140	-8.106327
Hf	5.788813	3.474140	-5.790229
Hf	3.473292	5.790229	-5.790229
Hf	1.157761	5.790229	-8.106327
O	3.631389	3.632951	-5.631418
O	-0.999663	5.631418	-8.265138
O	0.999663	3.632951	-8.265138
O	1.315868	5.949040	-5.949040
O	5.630716	5.631418	-5.631418
O	1.315868	7.947516	-7.947516
O	3.315184	7.947516	-5.949040
O	3.315184	5.949040	-7.947516
Eu	4.631050	-4.632185	0.000000
Eu	6.946572	-6.948273	-2.316088
Hf	3.473290	-5.790229	-3.474142
Hf	10.419863	-5.790229	-1.158044
Hf	8.104342	-3.474140	-1.158044
Hf	5.788811	-3.474140	-3.474142
O	8.262440	-5.631418	-0.999233
O	3.631387	-3.632951	-3.632953
O	5.630714	-5.631418	-3.632953
O	5.946918	-3.315330	-1.316855
O	10.261766	-3.632951	-0.999233
O	5.946918	-1.316853	-3.315332
O	7.946235	-1.316853	-1.316855
O	7.946235	-3.315330	-3.315332
Eu	9.262101	0.000000	0.000000
Eu	11.577622	-2.316088	-2.316088
Hf	8.104340	-1.158044	-3.474142
Hf	15.050914	-1.158044	-1.158044
Hf	12.735393	1.158044	-1.158044
Hf	10.419861	1.158044	-3.474142
O	12.893490	-0.999233	-0.999233
O	8.262438	0.999233	-3.632953
O	10.261764	-0.999233	-3.632953
O	10.577969	1.316855	-1.316855
O	14.892816	0.999233	-0.999233
O	10.577969	3.315332	-3.315332
O	12.577285	3.315332	-1.316855
O	12.577285	1.316855	-3.315332
Eu	0.000000	-4.632185	-4.632185
Eu	2.315521	-6.948273	-6.948273
Hf	-1.157761	-5.790229	-8.106327
Hf	5.788813	-5.790229	-5.790229
Hf	3.473292	-3.474140	-5.790229
Hf	1.157761	-3.474140	-8.106327
O	3.631389	-5.631418	-5.631418
O	-0.999663	-3.632951	-8.265138
O	0.999663	-5.631418	-8.265138
O	1.315868	-3.315330	-5.949040
O	5.630716	-3.632951	-5.631418
O	1.315868	-1.316853	-7.947516
O	3.315184	-1.316853	-5.949040
O	3.315184	-3.315330	-7.947516
Eu	4.631050	0.000000	-4.632185
Eu	6.946572	-2.316088	-6.948273
Hf	3.473290	-1.158044	-8.106327
Hf	10.419863	-1.158044	-5.790229
Hf	8.104342	1.158044	-5.790229
Hf	5.788811	1.158044	-8.106327
O	8.262440	-0.999233	-5.631418
O	3.631387	0.999233	-8.265138
O	5.630714	-0.999233	-8.265138
O	5.946918	1.316855	-5.949040
O	10.261766	0.999233	-5.631418
O	5.946918	3.315332	-7.947516
O	7.946235	3.315332	-5.949040
O	7.946235	1.316855	-7.947516
