112

O	3.776046	-1.266590	-1.266590
O	-1.266965	1.266590	-3.776927
O	1.266965	-1.266590	-3.776927
O	1.254540	1.255169	-1.255169
O	6.309977	1.266590	-1.266590
O	1.254540	3.788348	-3.788348
O	3.788471	3.788348	-1.255169
O	3.788471	1.255169	-3.788348
Pa	0.000000	0.000000	0.000000
Pa	2.521506	-2.521758	-2.521758
Sn	-1.260753	-1.260879	-3.782638
Sn	3.782259	1.260879	-1.260879
Sn	6.303764	-1.260879	-1.260879
Sn	1.260753	1.260879	-3.782638
O	8.819058	3.776927	-1.266590
O	3.776046	6.310106	-3.776927
O	6.309977	3.776927	-3.776927
O	6.297552	6.298686	-1.255169
O	11.352989	6.310106	-1.266590
O	6.297552	8.831865	-3.788348
O	8.831483	8.831865	-1.255169
O	8.831483	6.298686	-3.788348
Pa	5.043012	5.043517	0.000000
Pa	7.564517	2.521758	-2.521758
Sn	3.782259	3.782638	-3.782638
Sn	8.825270	6.304396	-1.260879
Sn	11.346776	3.782638	-1.260879
Sn	6.303764	6.304396	-3.782638
O	-1.266965	-1.266590	-6.310106
O	-6.309977	1.266590	-8.820444
O	-3.776046	-1.266590	-8.820444
O	-3.788471	1.255169	-6.298686
O	1.266965	1.266590	-6.310106
O	-3.788471	3.788348	-8.831865
O	-1.254540	3.788348	-6.298686
O	-1.254540	1.255169	-8.831865
Pa	-5.043012	0.000000	-5.043517
Pa	-2.521506	-2.521758	-7.565275
Sn	-6.303764	-1.260879	-8.826155
Sn	-1.260753	1.260879	-6.304396
Sn	1.260753	-1.260879	-6.304396
Sn	-3.782259	1.260879	-8.826155
O	3.776046	3.776927	-6.310106
O	-1.266965	6.310106	-8.820444
O	1.266965	3.776927	-8.820444
O	1.254540	6.298686	-6.298686
O	6.309977	6.310106	-6.310106
O	1.254540	8.831865	-8.831865
O	3.788471	8.831865	-6.298686
O	3.788471	6.298686	-8.831865
Pa	0.000000	5.043517	-5.043517
Pa	2.521506	2.521758	-7.565275
Sn	-1.260753	3.782638	-8.826155
Sn	3.782259	6.304396	-6.304396
Sn	6.303764	3.782638	-6.304396
Sn	1.260753	6.304396	-8.826155
O	8.819058	-6.310106	-1.266590
O	3.776046	-3.776927	-3.776927
O	6.309977	-6.310106	-3.776927
O	6.297552	-3.788348	-1.255169
O	11.352989	-3.776927	-1.266590
O	6.297552	-1.255169	-3.788348
O	8.831483	-1.255169	-1.255169
O	8.831483	-3.788348	-3.788348
Pa	5.043012	-5.043517	0.000000
Pa	7.564517	-7.565275	-2.521758
Sn	3.782259	-6.304396	-3.782638
Sn	8.825270	-3.782638	-1.260879
Sn	11.346776	-6.304396	-1.260879
Sn	6.303764	-3.782638	-3.782638
O	13.862069	-1.266590	-1.266590
O	8.819058	1.266590	-3.776927
O	11.352989	-1.266590	-3.776927
O	11.340563	1.255169	-1.255169
O	16.396000	1.266590	-1.266590
O	11.340563	3.788348	-3.788348
O	13.874494	3.788348	-1.255169
O	13.874494	1.255169	-3.788348
Pa	10.086023	0.000000	0.000000
Pa	12.607529	-2.521758	-2.521758
Sn	8.825270	-1.260879	-3.782638
Sn	13.868282	1.260879	-1.260879
Sn	16.389788	-1.260879	-1.260879
Sn	11.346776	1.260879	-3.782638
O	3.776046	-6.310106	-6.310106
O	-1.266965	-3.776927	-8.820444
O	1.266965	-6.310106	-8.820444
O	1.254540	-3.788348	-6.298686
O	6.309977	-3.776927	-6.310106
O	1.254540	-1.255169	-8.831865
O	3.788471	-1.255169	-6.298686
O	3.788471	-3.788348	-8.831865
Pa	0.000000	-5.043517	-5.043517
Pa	2.521506	-7.565275	-7.565275
Sn	-1.260753	-6.304396	-8.826155
Sn	3.782259	-3.782638	-6.304396
Sn	6.303764	-6.304396	-6.304396
Sn	1.260753	-3.782638	-8.826155
O	8.819058	-1.266590	-6.310106
O	3.776046	1.266590	-8.820444
O	6.309977	-1.266590	-8.820444
O	6.297552	1.255169	-6.298686
O	11.352989	1.266590	-6.310106
O	6.297552	3.788348	-8.831865
O	8.831483	3.788348	-6.298686
O	8.831483	1.255169	-8.831865
Pa	5.043012	0.000000	-5.043517
Pa	7.564517	-2.521758	-7.565275
Sn	3.782259	-1.260879	-8.826155
Sn	8.825270	1.260879	-6.304396
Sn	11.346776	-1.260879	-6.304396
Sn	6.303764	1.260879	-8.826155
