40

O	1.927640	1.927640	0.000000
O	0.000000	1.927640	1.927640
O	1.927640	0.000000	1.927640
Tb_3	0.000000	0.000000	0.000000
V	1.927640	1.927640	1.927640
O	1.927640	1.927640	3.855270
O	0.000000	1.927640	5.782910
O	1.927640	0.000000	5.782910
Tb_3	0.000000	0.000000	3.855270
V	1.927640	1.927640	5.782910
O	1.927640	5.782910	0.000000
O	0.000000	5.782910	1.927640
O	1.927640	3.855270	1.927640
Tb_3	0.000000	3.855270	0.000000
V	1.927640	5.782910	1.927640
O	1.927640	5.782910	3.855270
O	0.000000	5.782910	5.782910
O	1.927640	3.855270	5.782910
Tb_3	0.000000	3.855270	3.855270
V	1.927640	5.782910	5.782910
O	5.782910	1.927640	0.000000
O	3.855270	1.927640	1.927640
O	5.782910	0.000000	1.927640
Tb_3	3.855270	0.000000	0.000000
V	5.782910	1.927640	1.927640
O	5.782910	1.927640	3.855270
O	3.855270	1.927640	5.782910
O	5.782910	0.000000	5.782910
Tb_3	3.855270	0.000000	3.855270
V	5.782910	1.927640	5.782910
O	5.782910	5.782910	0.000000
O	3.855270	5.782910	1.927640
O	5.782910	3.855270	1.927640
Tb_3	3.855270	3.855270	0.000000
V	5.782910	5.782910	1.927640
O	5.782910	5.782910	3.855270
O	3.855270	5.782910	5.782910
O	5.782910	3.855270	5.782910
Tb_3	3.855270	3.855270	3.855270
V	5.782910	5.782910	5.782910
