40

F	0.000000	1.957802	1.957802
F	1.957802	0.000000	1.957802
F	1.957802	1.957802	0.000000
O	1.957802	1.957802	1.957802
Ti	0.000000	0.000000	0.000000
F	0.000000	1.957802	5.873405
F	1.957802	0.000000	5.873405
F	1.957802	1.957802	3.915604
O	1.957802	1.957802	5.873405
Ti	0.000000	0.000000	3.915604
F	0.000000	5.873405	1.957802
F	1.957802	3.915604	1.957802
F	1.957802	5.873405	0.000000
O	1.957802	5.873405	1.957802
Ti	0.000000	3.915604	0.000000
F	0.000000	5.873405	5.873405
F	1.957802	3.915604	5.873405
F	1.957802	5.873405	3.915604
O	1.957802	5.873405	5.873405
Ti	0.000000	3.915604	3.915604
F	3.915604	1.957802	1.957802
F	5.873405	0.000000	1.957802
F	5.873405	1.957802	0.000000
O	5.873405	1.957802	1.957802
Ti	3.915604	0.000000	0.000000
F	3.915604	1.957802	5.873405
F	5.873405	0.000000	5.873405
F	5.873405	1.957802	3.915604
O	5.873405	1.957802	5.873405
Ti	3.915604	0.000000	3.915604
F	3.915604	5.873405	1.957802
F	5.873405	3.915604	1.957802
F	5.873405	5.873405	0.000000
O	5.873405	5.873405	1.957802
Ti	3.915604	3.915604	0.000000
F	3.915604	5.873405	5.873405
F	5.873405	3.915604	5.873405
F	5.873405	5.873405	3.915604
O	5.873405	5.873405	5.873405
Ti	3.915604	3.915604	3.915604
