320

O	-3.555166	1.302116	1.302116
O	-3.555166	-1.302116	-1.302116
O	-6.853511	1.302541	1.302541
O	-6.853511	-1.302541	-1.302541
O	-3.553880	-1.302541	1.302541
O	-1.302116	1.302116	3.555166
O	-1.302116	-3.555166	-1.302116
O	-6.852225	-1.302116	1.302116
O	-3.901155	1.649816	3.901155
O	-3.901155	-3.901155	-1.649816
O	1.302116	-1.302116	3.555166
O	1.302116	-3.555166	1.302116
O	-1.302541	-1.302541	3.553880
O	-1.302541	-3.553880	1.302541
O	-1.302541	1.302541	6.853511
O	-1.302541	-6.853511	-1.302541
O	-3.901580	-1.648529	3.901580
O	-3.901580	-3.901580	1.648529
O	1.302541	-1.302541	6.853511
O	1.302541	-6.853511	1.302541
O	-1.648529	-3.901580	3.901580
O	-1.302116	-1.302116	6.852225
O	-1.302116	-6.852225	1.302116
O	1.649816	-3.901155	3.901155
Sb	-2.602390	2.602390	2.602390
Sb	-2.607293	-0.000000	-0.000000
Sb	-2.602390	-2.602390	-2.602390
Sb	-7.800098	-0.000000	-0.000000
Sb	0.000000	-0.000000	2.607293
Sb	0.000000	-2.607293	0.000000
Sb	-2.601305	-2.601305	2.601305
Sb	2.602390	-2.602390	2.602390
Sb	0.000000	-0.000000	7.800098
Sb	0.000000	-7.800098	0.000000
Yb	-5.203695	-0.000000	2.601848
Yb	-5.203695	-2.601848	0.000000
Yb	-2.601848	-0.000000	5.203695
Yb	-2.601848	-5.203695	0.000000
Yb	0.000000	-2.601848	5.203695
Yb	0.000000	-5.203695	2.601848
O	1.648529	-3.901580	6.505811
O	1.648529	-6.505811	3.901580
O	-1.649816	-3.901155	6.506236
O	-1.649816	-6.506236	3.901155
O	1.649816	-6.506236	6.506236
O	3.901580	-3.901580	8.758862
O	3.901580	-8.758862	3.901580
O	-1.648529	-6.505811	6.505811
O	1.302541	-3.553880	9.104850
O	1.302541	-9.104850	3.553880
O	6.505811	-6.505811	8.758862
O	6.505811	-8.758862	6.505811
O	3.901155	-6.506236	8.757575
O	3.901155	-8.757575	6.506236
O	3.901155	-3.901155	12.057207
O	3.901155	-12.057207	3.901155
O	1.302116	-6.852225	9.105275
O	1.302116	-9.105275	6.852225
O	6.506236	-6.506236	12.057207
O	6.506236	-12.057207	6.506236
O	3.555166	-9.105275	9.105275
O	3.901580	-6.505811	12.055920
O	3.901580	-12.055920	6.505811
O	6.853511	-9.104850	9.104850
Sb	2.601305	-2.601305	7.806086
Sb	2.596402	-5.203695	5.203695
Sb	2.601305	-7.806086	2.601305
Sb	-2.596402	-5.203695	5.203695
Sb	5.203695	-5.203695	7.810988
Sb	5.203695	-7.810988	5.203695
Sb	2.602390	-7.805000	7.805000
Sb	7.806086	-7.806086	7.806086
Sb	5.203695	-5.203695	13.003793
Sb	5.203695	-13.003793	5.203695
Yb	0.000000	-5.203695	7.805543
Yb	0.000000	-7.805543	5.203695
Yb	2.601848	-5.203695	10.407391
Yb	2.601848	-10.407391	5.203695
Yb	5.203695	-7.805543	10.407391
Yb	5.203695	-10.407391	7.805543
O	-8.758862	-3.901580	-3.901580
O	-8.758862	-6.505811	-6.505811
O	-12.057207	-3.901155	-3.901155
O	-12.057207	-6.506236	-6.506236
O	-8.757575	-6.506236	-3.901155
O	-6.505811	-3.901580	-1.648529
O	-6.505811	-8.758862	-6.505811
O	-12.055920	-6.505811	-3.901580
O	-9.104850	-3.553880	-1.302541
O	-9.104850	-9.104850	-6.853511
O	-3.901580	-6.505811	-1.648529
O	-3.901580	-8.758862	-3.901580
O	-6.506236	-6.506236	-1.649816
O	-6.506236	-8.757575	-3.901155
O	-6.506236	-3.901155	1.649816
O	-6.506236	-12.057207	-6.506236
O	-9.105275	-6.852225	-1.302116
O	-9.105275	-9.105275	-3.555166
O	-3.901155	-6.506236	1.649816
O	-3.901155	-12.057207	-3.901155
O	-6.852225	-9.105275	-1.302116
O	-6.505811	-6.505811	1.648529
O	-6.505811	-12.055920	-3.901580
O	-3.553880	-9.104850	-1.302541
Sb	-7.806086	-2.601305	-2.601305
Sb	-7.810988	-5.203695	-5.203695
Sb	-7.806086	-7.806086	-7.806086
Sb	-13.003793	-5.203695	-5.203695
Sb	-5.203695	-5.203695	-2.596402
Sb	-5.203695	-7.810988	-5.203695
Sb	-7.805000	-7.805000	-2.602390
Sb	-2.601305	-7.806086	-2.601305
Sb	-5.203695	-5.203695	2.596402
Sb	-5.203695	-13.003793	-5.203695
Yb	-10.407391	-5.203695	-2.601848
Yb	-10.407391	-7.805543	-5.203695
Yb	-7.805543	-5.203695	-0.000000
Yb	-7.805543	-10.407391	-5.203695
Yb	-5.203695	-7.805543	0.000000
Yb	-5.203695	-10.407391	-2.601848
O	-3.555166	-9.105275	1.302116
O	-3.555166	-11.709506	-1.302116
O	-6.853511	-9.104850	1.302541
O	-6.853511	-11.709932	-1.302541
O	-3.553880	-11.709932	1.302541
O	-1.302116	-9.105275	3.555166
O	-1.302116	-13.962557	-1.302116
O	-6.852225	-11.709506	1.302116
O	-3.901155	-8.757575	3.901155
O	-3.901155	-14.308545	-1.649816
O	1.302116	-11.709506	3.555166
O	1.302116	-13.962557	1.302116
O	-1.302541	-11.709932	3.553880
O	-1.302541	-13.961270	1.302541
O	-1.302541	-9.104850	6.853511
O	-1.302541	-17.260902	-1.302541
O	-3.901580	-12.055920	3.901580
O	-3.901580	-14.308971	1.648529
O	1.302541	-11.709932	6.853511
O	1.302541	-17.260902	1.302541
O	-1.648529	-14.308971	3.901580
O	-1.302116	-11.709506	6.852225
O	-1.302116	-17.259616	1.302116
O	1.649816	-14.308545	3.901155
Sb	-2.602390	-7.805000	2.602390
Sb	-2.607293	-10.407391	0.000000
Sb	-2.602390	-13.009781	-2.602390
Sb	-7.800098	-10.407391	0.000000
Sb	0.000000	-10.407391	2.607293
Sb	0.000000	-13.014684	0.000000
Sb	-2.601305	-13.008696	2.601305
Sb	2.602390	-13.009781	2.602390
Sb	0.000000	-10.407391	7.800098
Sb	0.000000	-18.207489	0.000000
Yb	-5.203695	-10.407391	2.601848
Yb	-5.203695	-13.009239	0.000000
Yb	-2.601848	-10.407391	5.203695
Yb	-2.601848	-15.611086	0.000000
Yb	0.000000	-13.009239	5.203695
Yb	0.000000	-15.611086	2.601848
O	-8.758862	6.505811	6.505811
O	-8.758862	3.901580	3.901580
O	-12.057207	6.506236	6.506236
O	-12.057207	3.901155	3.901155
O	-8.757575	3.901155	6.506236
O	-6.505811	6.505811	8.758862
O	-6.505811	1.648529	3.901580
O	-12.055920	3.901580	6.505811
O	-9.104850	6.853511	9.104850
O	-9.104850	1.302541	3.553880
O	-3.901580	3.901580	8.758862
O	-3.901580	1.648529	6.505811
O	-6.506236	3.901155	8.757575
O	-6.506236	1.649816	6.506236
O	-6.506236	6.506236	12.057207
O	-6.506236	-1.649816	3.901155
O	-9.105275	3.555166	9.105275
O	-9.105275	1.302116	6.852225
O	-3.901155	3.901155	12.057207
O	-3.901155	-1.649816	6.506236
O	-6.852225	1.302116	9.105275
O	-6.505811	3.901580	12.055920
O	-6.505811	-1.648529	6.505811
O	-3.553880	1.302541	9.104850
Sb	-7.806086	7.806086	7.806086
Sb	-7.810988	5.203695	5.203695
Sb	-7.806086	2.601305	2.601305
Sb	-13.003793	5.203695	5.203695
Sb	-5.203695	5.203695	7.810988
Sb	-5.203695	2.596402	5.203695
Sb	-7.805000	2.602390	7.805000
Sb	-2.601305	2.601305	7.806086
Sb	-5.203695	5.203695	13.003793
Sb	-5.203695	-2.596402	5.203695
Yb	-10.407391	5.203695	7.805543
Yb	-10.407391	2.601848	5.203695
Yb	-7.805543	5.203695	10.407391
Yb	-7.805543	0.000000	5.203695
Yb	-5.203695	2.601848	10.407391
Yb	-5.203695	0.000000	7.805543
O	-3.555166	1.302116	11.709506
O	-3.555166	-1.302116	9.105275
O	-6.853511	1.302541	11.709932
O	-6.853511	-1.302541	9.104850
O	-3.553880	-1.302541	11.709932
O	-1.302116	1.302116	13.962557
O	-1.302116	-3.555166	9.105275
O	-6.852225	-1.302116	11.709506
O	-3.901155	1.649816	14.308545
O	-3.901155	-3.901155	8.757575
O	1.302116	-1.302116	13.962557
O	1.302116	-3.555166	11.709506
O	-1.302541	-1.302541	13.961270
O	-1.302541	-3.553880	11.709932
O	-1.302541	1.302541	17.260902
O	-1.302541	-6.853511	9.104850
O	-3.901580	-1.648529	14.308971
O	-3.901580	-3.901580	12.055920
O	1.302541	-1.302541	17.260902
O	1.302541	-6.853511	11.709932
O	-1.648529	-3.901580	14.308971
O	-1.302116	-1.302116	17.259616
O	-1.302116	-6.852225	11.709506
O	1.649816	-3.901155	14.308545
Sb	-2.602390	2.602390	13.009781
Sb	-2.607293	0.000000	10.407391
Sb	-2.602390	-2.602390	7.805000
Sb	-7.800098	0.000000	10.407391
Sb	0.000000	0.000000	13.014684
Sb	0.000000	-2.607293	10.407391
Sb	-2.601305	-2.601305	13.008696
Sb	2.602390	-2.602390	13.009781
Sb	0.000000	0.000000	18.207489
Sb	0.000000	-7.800098	10.407391
Yb	-5.203695	0.000000	13.009239
Yb	-5.203695	-2.601848	10.407391
Yb	-2.601848	0.000000	15.611086
Yb	-2.601848	-5.203695	10.407391
Yb	0.000000	-2.601848	15.611086
Yb	0.000000	-5.203695	13.009239
O	-13.962557	1.302116	1.302116
O	-13.962557	-1.302116	-1.302116
O	-17.260902	1.302541	1.302541
O	-17.260902	-1.302541	-1.302541
O	-13.961270	-1.302541	1.302541
O	-11.709506	1.302116	3.555166
O	-11.709506	-3.555166	-1.302116
O	-17.259616	-1.302116	1.302116
O	-14.308545	1.649816	3.901155
O	-14.308545	-3.901155	-1.649816
O	-9.105275	-1.302116	3.555166
O	-9.105275	-3.555166	1.302116
O	-11.709932	-1.302541	3.553880
O	-11.709932	-3.553880	1.302541
O	-11.709932	1.302541	6.853511
O	-11.709932	-6.853511	-1.302541
O	-14.308971	-1.648529	3.901580
O	-14.308971	-3.901580	1.648529
O	-9.104850	-1.302541	6.853511
O	-9.104850	-6.853511	1.302541
O	-12.055920	-3.901580	3.901580
O	-11.709506	-1.302116	6.852225
O	-11.709506	-6.852225	1.302116
O	-8.757575	-3.901155	3.901155
Sb	-13.009781	2.602390	2.602390
Sb	-13.014684	0.000000	0.000000
Sb	-13.009781	-2.602390	-2.602390
Sb	-18.207489	0.000000	0.000000
Sb	-10.407391	0.000000	2.607293
Sb	-10.407391	-2.607293	0.000000
Sb	-13.008696	-2.601305	2.601305
Sb	-7.805000	-2.602390	2.602390
Sb	-10.407391	0.000000	7.800098
Sb	-10.407391	-7.800098	0.000000
Yb	-15.611086	0.000000	2.601848
Yb	-15.611086	-2.601848	0.000000
Yb	-13.009239	0.000000	5.203695
Yb	-13.009239	-5.203695	0.000000
Yb	-10.407391	-2.601848	5.203695
Yb	-10.407391	-5.203695	2.601848
O	-8.758862	-3.901580	6.505811
O	-8.758862	-6.505811	3.901580
O	-12.057207	-3.901155	6.506236
O	-12.057207	-6.506236	3.901155
O	-8.757575	-6.506236	6.506236
O	-6.505811	-3.901580	8.758862
O	-6.505811	-8.758862	3.901580
O	-12.055920	-6.505811	6.505811
O	-9.104850	-3.553880	9.104850
O	-9.104850	-9.104850	3.553880
O	-3.901580	-6.505811	8.758862
O	-3.901580	-8.758862	6.505811
O	-6.506236	-6.506236	8.757575
O	-6.506236	-8.757575	6.506236
O	-6.506236	-3.901155	12.057207
O	-6.506236	-12.057207	3.901155
O	-9.105275	-6.852225	9.105275
O	-9.105275	-9.105275	6.852225
O	-3.901155	-6.506236	12.057207
O	-3.901155	-12.057207	6.506236
O	-6.852225	-9.105275	9.105275
O	-6.505811	-6.505811	12.055920
O	-6.505811	-12.055920	6.505811
O	-3.553880	-9.104850	9.104850
Sb	-7.806086	-2.601305	7.806086
Sb	-7.810988	-5.203695	5.203695
Sb	-7.806086	-7.806086	2.601305
Sb	-13.003793	-5.203695	5.203695
Sb	-5.203695	-5.203695	7.810988
Sb	-5.203695	-7.810988	5.203695
Sb	-7.805000	-7.805000	7.805000
Sb	-2.601305	-7.806086	7.806086
Sb	-5.203695	-5.203695	13.003793
Sb	-5.203695	-13.003793	5.203695
Yb	-10.407391	-5.203695	7.805543
Yb	-10.407391	-7.805543	5.203695
Yb	-7.805543	-5.203695	10.407391
Yb	-7.805543	-10.407391	5.203695
Yb	-5.203695	-7.805543	10.407391
Yb	-5.203695	-10.407391	7.805543
