40

F	1.850119	1.850119	1.850119
N	0.000000	0.000000	0.000000
O	0.000000	1.850119	1.850119
O	1.850119	0.000000	1.850119
O	1.850119	1.850119	0.000000
F	1.850119	1.850119	5.550356
N	0.000000	0.000000	3.700237
O	0.000000	1.850119	5.550356
O	1.850119	0.000000	5.550356
O	1.850119	1.850119	3.700237
F	1.850119	5.550356	1.850119
N	0.000000	3.700237	0.000000
O	0.000000	5.550356	1.850119
O	1.850119	3.700237	1.850119
O	1.850119	5.550356	0.000000
F	1.850119	5.550356	5.550356
N	0.000000	3.700237	3.700237
O	0.000000	5.550356	5.550356
O	1.850119	3.700237	5.550356
O	1.850119	5.550356	3.700237
F	5.550356	1.850119	1.850119
N	3.700237	0.000000	0.000000
O	3.700237	1.850119	1.850119
O	5.550356	0.000000	1.850119
O	5.550356	1.850119	0.000000
F	5.550356	1.850119	5.550356
N	3.700237	0.000000	3.700237
O	3.700237	1.850119	5.550356
O	5.550356	0.000000	5.550356
O	5.550356	1.850119	3.700237
F	5.550356	5.550356	1.850119
N	3.700237	3.700237	0.000000
O	3.700237	5.550356	1.850119
O	5.550356	3.700237	1.850119
O	5.550356	5.550356	0.000000
F	5.550356	5.550356	5.550356
N	3.700237	3.700237	3.700237
O	3.700237	5.550356	5.550356
O	5.550356	3.700237	5.550356
O	5.550356	5.550356	3.700237
