40

Be	0.000000	0.000000	0.000000
Ir	1.937400	1.937400	1.937400
O	0.000000	1.937400	1.937400
O	1.937400	0.000000	1.937400
O	1.937400	1.937400	0.000000
Be	0.000000	0.000000	3.874799
Ir	1.937400	1.937400	5.812199
O	0.000000	1.937400	5.812199
O	1.937400	0.000000	5.812199
O	1.937400	1.937400	3.874799
Be	0.000000	3.874799	0.000000
Ir	1.937400	5.812199	1.937400
O	0.000000	5.812199	1.937400
O	1.937400	3.874799	1.937400
O	1.937400	5.812199	0.000000
Be	0.000000	3.874799	3.874799
Ir	1.937400	5.812199	5.812199
O	0.000000	5.812199	5.812199
O	1.937400	3.874799	5.812199
O	1.937400	5.812199	3.874799
Be	3.874799	0.000000	0.000000
Ir	5.812199	1.937400	1.937400
O	3.874799	1.937400	1.937400
O	5.812199	0.000000	1.937400
O	5.812199	1.937400	0.000000
Be	3.874799	0.000000	3.874799
Ir	5.812199	1.937400	5.812199
O	3.874799	1.937400	5.812199
O	5.812199	0.000000	5.812199
O	5.812199	1.937400	3.874799
Be	3.874799	3.874799	0.000000
Ir	5.812199	5.812199	1.937400
O	3.874799	5.812199	1.937400
O	5.812199	3.874799	1.937400
O	5.812199	5.812199	0.000000
Be	3.874799	3.874799	3.874799
Ir	5.812199	5.812199	5.812199
O	3.874799	5.812199	5.812199
O	5.812199	3.874799	5.812199
O	5.812199	5.812199	3.874799
