112

B	0.000000	0.000000	0.000000
B	2.069126	-2.069574	-2.069574
O	-0.849456	0.849335	-3.289803
O	3.288786	-0.849335	-0.849335
O	0.849456	-0.849335	-3.289803
O	1.219660	1.220239	-1.220239
O	4.987708	0.849335	-0.849335
O	1.219660	2.918909	-2.918909
O	2.918582	2.918909	-1.220239
O	2.918582	1.220239	-2.918909
Si	-1.034563	-1.034782	-3.104356
Si	3.103679	1.034782	-1.034782
Si	1.034563	1.034782	-3.104356
Si	5.172805	-1.034782	-1.034782
B	4.138244	4.139143	0.000000
B	6.207370	2.069569	-2.069574
O	3.288788	4.988477	-3.289803
O	7.427030	3.289808	-0.849335
O	4.987700	3.289808	-3.289803
O	5.357904	5.359382	-1.220239
O	9.125952	4.988477	-0.849335
O	5.357904	7.058051	-2.918909
O	7.056826	7.058051	-1.220239
O	7.056826	5.359382	-2.918909
Si	3.103681	3.104361	-3.104356
Si	7.241923	5.173925	-1.034782
Si	5.172807	5.173925	-3.104356
Si	9.311049	3.104361	-1.034782
B	-4.138244	0.000000	-4.139143
B	-2.069118	-2.069574	-6.208717
O	-4.987700	0.849335	-7.428946
O	-0.849459	-0.849335	-4.988477
O	-3.288788	-0.849335	-7.428946
O	-2.918584	1.220239	-5.359382
O	0.849464	0.849335	-4.988477
O	-2.918584	2.918909	-7.058051
O	-1.219662	2.918909	-5.359382
O	-1.219662	1.220239	-7.058051
Si	-5.172807	-1.034782	-7.243499
Si	-1.034565	1.034782	-5.173925
Si	-3.103681	1.034782	-7.243499
Si	1.034560	-1.034782	-5.173925
B	0.000000	4.139143	-4.139143
B	2.069126	2.069569	-6.208717
O	-0.849456	4.988477	-7.428946
O	3.288786	3.289808	-4.988477
O	0.849456	3.289808	-7.428946
O	1.219660	5.359382	-5.359382
O	4.987708	4.988477	-4.988477
O	1.219660	7.058051	-7.058051
O	2.918582	7.058051	-5.359382
O	2.918582	5.359382	-7.058051
Si	-1.034563	3.104361	-7.243499
Si	3.103679	5.173925	-5.173925
Si	1.034563	5.173925	-7.243499
Si	5.172805	3.104361	-5.173925
B	4.138244	-4.139143	0.000000
B	6.207370	-6.208717	-2.069574
O	3.288788	-3.289808	-3.289803
O	7.427030	-4.988477	-0.849335
O	4.987700	-4.988477	-3.289803
O	5.357904	-2.918903	-1.220239
O	9.125952	-3.289808	-0.849335
O	5.357904	-1.220234	-2.918909
O	7.056826	-1.220234	-1.220239
O	7.056826	-2.918903	-2.918909
Si	3.103681	-5.173925	-3.104356
Si	7.241923	-3.104361	-1.034782
Si	5.172807	-3.104361	-3.104356
Si	9.311049	-5.173925	-1.034782
B	8.276488	0.000000	0.000000
B	10.345614	-2.069574	-2.069574
O	7.427032	0.849335	-3.289803
O	11.565274	-0.849335	-0.849335
O	9.125944	-0.849335	-3.289803
O	9.496148	1.220239	-1.220239
O	13.264196	0.849335	-0.849335
O	9.496148	2.918909	-2.918909
O	11.195070	2.918909	-1.220239
O	11.195070	1.220239	-2.918909
Si	7.241925	-1.034782	-3.104356
Si	11.380167	1.034782	-1.034782
Si	9.311051	1.034782	-3.104356
Si	13.449293	-1.034782	-1.034782
B	0.000000	-4.139143	-4.139143
B	2.069126	-6.208717	-6.208717
O	-0.849456	-3.289808	-7.428946
O	3.288786	-4.988477	-4.988477
O	0.849456	-4.988477	-7.428946
O	1.219660	-2.918903	-5.359382
O	4.987708	-3.289808	-4.988477
O	1.219660	-1.220234	-7.058051
O	2.918582	-1.220234	-5.359382
O	2.918582	-2.918903	-7.058051
Si	-1.034563	-5.173925	-7.243499
Si	3.103679	-3.104361	-5.173925
Si	1.034563	-3.104361	-7.243499
Si	5.172805	-5.173925	-5.173925
B	4.138244	0.000000	-4.139143
B	6.207370	-2.069574	-6.208717
O	3.288788	0.849335	-7.428946
O	7.427030	-0.849335	-4.988477
O	4.987700	-0.849335	-7.428946
O	5.357904	1.220239	-5.359382
O	9.125952	0.849335	-4.988477
O	5.357904	2.918909	-7.058051
O	7.056826	2.918909	-5.359382
O	7.056826	1.220239	-7.058051
Si	3.103681	-1.034782	-7.243499
Si	7.241923	1.034782	-5.173925
Si	5.172807	1.034782	-7.243499
Si	9.311049	-1.034782	-5.173925
