112

Ag	0.000000	0.000000	0.000000
Ag	2.331969	-2.332807	-2.332807
Na	-1.165984	-1.166403	-3.499210
Na	3.497953	1.166403	-1.166403
Na	5.829922	-1.166403	-1.166403
Na	1.165984	1.166403	-3.499210
O	3.456517	-1.206967	-1.206967
O	-1.207421	1.206967	-3.458647
O	1.207421	-1.206967	-3.458647
O	1.124548	1.125840	-1.125840
O	5.871359	1.206967	-1.206967
O	1.124548	3.539774	-3.539774
O	3.539390	3.539774	-1.125840
O	3.539390	1.125840	-3.539774
Ag	4.663938	4.665614	0.000000
Ag	6.995907	2.332807	-2.332807
Na	3.497953	3.499210	-3.499210
Na	8.161891	5.832017	-1.166403
Na	10.493860	3.499210	-1.166403
Na	5.829922	5.832017	-3.499210
O	8.120455	3.458647	-1.206967
O	3.456517	5.872581	-3.458647
O	5.871359	3.458647	-3.458647
O	5.788486	5.791454	-1.125840
O	10.535297	5.872581	-1.206967
O	5.788486	8.205388	-3.539774
O	8.203328	8.205388	-1.125840
O	8.203328	5.791454	-3.539774
Ag	-4.663938	0.000000	-4.665614
Ag	-2.331969	-2.332807	-6.998421
Na	-5.829922	-1.166403	-8.164824
Na	-1.165984	1.166403	-5.832017
Na	1.165984	-1.166403	-5.832017
Na	-3.497953	1.166403	-8.164824
O	-1.207421	-1.206967	-5.872581
O	-5.871359	1.206967	-8.124261
O	-3.456517	-1.206967	-8.124261
O	-3.539390	1.125840	-5.791454
O	1.207421	1.206967	-5.872581
O	-3.539390	3.539774	-8.205388
O	-1.124548	3.539774	-5.791454
O	-1.124548	1.125840	-8.205388
Ag	0.000000	4.665614	-4.665614
Ag	2.331969	2.332807	-6.998421
Na	-1.165984	3.499210	-8.164824
Na	3.497953	5.832017	-5.832017
Na	5.829922	3.499210	-5.832017
Na	1.165984	5.832017	-8.164824
O	3.456517	3.458647	-5.872581
O	-1.207421	5.872581	-8.124261
O	1.207421	3.458647	-8.124261
O	1.124548	5.791454	-5.791454
O	5.871359	5.872581	-5.872581
O	1.124548	8.205388	-8.205388
O	3.539390	8.205388	-5.791454
O	3.539390	5.791454	-8.205388
Ag	4.663938	-4.665614	0.000000
Ag	6.995907	-6.998421	-2.332807
Na	3.497953	-5.832017	-3.499210
Na	8.161891	-3.499210	-1.166403
Na	10.493860	-5.832017	-1.166403
Na	5.829922	-3.499210	-3.499210
O	8.120455	-5.872581	-1.206967
O	3.456517	-3.458647	-3.458647
O	5.871359	-5.872581	-3.458647
O	5.788486	-3.539774	-1.125840
O	10.535297	-3.458647	-1.206967
O	5.788486	-1.125840	-3.539774
O	8.203328	-1.125840	-1.125840
O	8.203328	-3.539774	-3.539774
Ag	9.327876	0.000000	0.000000
Ag	11.659845	-2.332807	-2.332807
Na	8.161891	-1.166403	-3.499210
Na	12.825829	1.166403	-1.166403
Na	15.157798	-1.166403	-1.166403
Na	10.493860	1.166403	-3.499210
O	12.784393	-1.206967	-1.206967
O	8.120455	1.206967	-3.458647
O	10.535297	-1.206967	-3.458647
O	10.452424	1.125840	-1.125840
O	15.199235	1.206967	-1.206967
O	10.452424	3.539774	-3.539774
O	12.867266	3.539774	-1.125840
O	12.867266	1.125840	-3.539774
Ag	0.000000	-4.665614	-4.665614
Ag	2.331969	-6.998421	-6.998421
Na	-1.165984	-5.832017	-8.164824
Na	3.497953	-3.499210	-5.832017
Na	5.829922	-5.832017	-5.832017
Na	1.165984	-3.499210	-8.164824
O	3.456517	-5.872581	-5.872581
O	-1.207421	-3.458647	-8.124261
O	1.207421	-5.872581	-8.124261
O	1.124548	-3.539774	-5.791454
O	5.871359	-3.458647	-5.872581
O	1.124548	-1.125840	-8.205388
O	3.539390	-1.125840	-5.791454
O	3.539390	-3.539774	-8.205388
Ag	4.663938	0.000000	-4.665614
Ag	6.995907	-2.332807	-6.998421
Na	3.497953	-1.166403	-8.164824
Na	8.161891	1.166403	-5.832017
Na	10.493860	-1.166403	-5.832017
Na	5.829922	1.166403	-8.164824
O	8.120455	-1.206967	-5.872581
O	3.456517	1.206967	-8.124261
O	5.871359	-1.206967	-8.124261
O	5.788486	1.125840	-5.791454
O	10.535297	1.206967	-5.872581
O	5.788486	3.539774	-8.205388
O	8.203328	3.539774	-5.791454
O	8.203328	1.125840	-8.205388
