176

O	1.060178	0.749659	1.836282
O	7.421246	5.247613	12.853975
O	2.056334	3.838835	7.456017
O	4.176690	5.338153	11.128581
O	4.304733	0.659119	7.456017
O	5.428933	3.838835	5.508846
O	0.932135	0.659119	5.508846
O	2.056334	3.838835	3.561676
O	4.304733	0.659119	3.561676
O	7.549289	5.338153	9.181410
O	3.052491	2.158437	9.181410
O	6.425089	2.158437	7.234240
O	6.425089	2.158437	11.128581
O	4.176690	5.338153	7.234240
Ca	4.240712	2.998636	7.345128
Ca	4.240712	2.998636	3.672564
Ca	1.060178	2.998636	5.508846
Ca	3.180534	0.000000	5.508846
Sb	0.000000	0.000000	0.000000
Sb	0.000000	0.000000	3.672564
Sb	3.180534	0.000000	1.836282
Sb	1.060178	2.998636	1.836282
O	1.060178	0.749659	9.181410
O	7.421246	5.247613	20.199103
O	2.056334	3.838835	14.801145
O	4.176690	5.338153	18.473710
O	4.304733	0.659119	14.801145
O	5.428933	3.838835	12.853975
O	0.932135	0.659119	12.853975
O	2.056334	3.838835	10.906804
O	4.304733	0.659119	10.906804
O	7.549289	5.338153	16.526539
O	3.052491	2.158437	16.526539
O	6.425089	2.158437	14.579368
O	6.425089	2.158437	18.473710
O	4.176690	5.338153	14.579368
Ca	4.240712	2.998636	14.690257
Ca	4.240712	2.998636	11.017693
Ca	1.060178	2.998636	12.853975
Ca	3.180534	0.000000	12.853975
Sb	0.000000	0.000000	7.345128
Sb	0.000000	0.000000	11.017693
Sb	3.180534	0.000000	9.181410
Sb	1.060178	2.998636	9.181410
O	3.180534	6.746931	5.508846
O	9.541602	11.244885	16.526539
O	4.176690	9.836108	11.128581
O	6.297046	11.335426	14.801145
O	6.425089	6.656391	11.128581
O	7.549289	9.836108	9.181410
O	3.052491	6.656391	9.181410
O	4.176690	9.836108	7.234240
O	6.425089	6.656391	7.234240
O	9.669645	11.335426	12.853975
O	5.172847	8.155709	12.853975
O	8.545445	8.155709	10.906804
O	8.545445	8.155709	14.801145
O	6.297046	11.335426	10.906804
Ca	6.361068	8.995908	11.017693
Ca	6.361068	8.995908	7.345128
Ca	3.180534	8.995908	9.181410
Ca	5.300890	5.997272	9.181410
Sb	2.120356	5.997272	3.672564
Sb	2.120356	5.997272	7.345128
Sb	5.300890	5.997272	5.508846
Sb	3.180534	8.995908	5.508846
O	3.180534	6.746931	12.853975
O	9.541602	11.244885	23.871667
O	4.176690	9.836108	18.473710
O	6.297046	11.335426	22.146274
O	6.425089	6.656391	18.473710
O	7.549289	9.836108	16.526539
O	3.052491	6.656391	16.526539
O	4.176690	9.836108	14.579368
O	6.425089	6.656391	14.579368
O	9.669645	11.335426	20.199103
O	5.172847	8.155709	20.199103
O	8.545445	8.155709	18.251932
O	8.545445	8.155709	22.146274
O	6.297046	11.335426	18.251932
Ca	6.361068	8.995908	18.362821
Ca	6.361068	8.995908	14.690257
Ca	3.180534	8.995908	16.526539
Ca	5.300890	5.997272	16.526539
Sb	2.120356	5.997272	11.017693
Sb	2.120356	5.997272	14.690257
Sb	5.300890	5.997272	12.853975
Sb	3.180534	8.995908	12.853975
O	7.421246	0.749659	5.508846
O	13.782313	5.247613	16.526539
O	8.417402	3.838835	11.128581
O	10.537758	5.338153	14.801145
O	10.665801	0.659119	11.128581
O	11.790001	3.838835	9.181410
O	7.293203	0.659119	9.181410
O	8.417402	3.838835	7.234240
O	10.665801	0.659119	7.234240
O	13.910357	5.338153	12.853975
O	9.413558	2.158437	12.853975
O	12.786157	2.158437	10.906804
O	12.786157	2.158437	14.801145
O	10.537758	5.338153	10.906804
Ca	10.601780	2.998636	11.017693
Ca	10.601780	2.998636	7.345128
Ca	7.421246	2.998636	9.181410
Ca	9.541602	0.000000	9.181410
Sb	6.361068	0.000000	3.672564
Sb	6.361068	0.000000	7.345128
Sb	9.541602	0.000000	5.508846
Sb	7.421246	2.998636	5.508846
O	7.421246	0.749659	12.853975
O	13.782313	5.247613	23.871667
O	8.417402	3.838835	18.473710
O	10.537758	5.338153	22.146274
O	10.665801	0.659119	18.473710
O	11.790001	3.838835	16.526539
O	7.293203	0.659119	16.526539
O	8.417402	3.838835	14.579368
O	10.665801	0.659119	14.579368
O	13.910357	5.338153	20.199103
O	9.413558	2.158437	20.199103
O	12.786157	2.158437	18.251932
O	12.786157	2.158437	22.146274
O	10.537758	5.338153	18.251932
Ca	10.601780	2.998636	18.362821
Ca	10.601780	2.998636	14.690257
Ca	7.421246	2.998636	16.526539
Ca	9.541602	0.000000	16.526539
Sb	6.361068	0.000000	11.017693
Sb	6.361068	0.000000	14.690257
Sb	9.541602	0.000000	12.853975
Sb	7.421246	2.998636	12.853975
O	9.541602	6.746931	9.181410
O	15.902669	11.244885	20.199103
O	10.537758	9.836108	14.801145
O	12.658114	11.335426	18.473710
O	12.786157	6.656391	14.801145
O	13.910357	9.836108	12.853975
O	9.413558	6.656391	12.853975
O	10.537758	9.836108	10.906804
O	12.786157	6.656391	10.906804
O	16.030713	11.335426	16.526539
O	11.533914	8.155709	16.526539
O	14.906513	8.155709	14.579368
O	14.906513	8.155709	18.473710
O	12.658114	11.335426	14.579368
Ca	12.722136	8.995908	14.690257
Ca	12.722136	8.995908	11.017693
Ca	9.541602	8.995908	12.853975
Ca	11.661958	5.997272	12.853975
Sb	8.481424	5.997272	7.345128
Sb	8.481424	5.997272	11.017693
Sb	11.661958	5.997272	9.181410
Sb	9.541602	8.995908	9.181410
O	9.541602	6.746931	16.526539
O	15.902669	11.244885	27.544231
O	10.537758	9.836108	22.146274
O	12.658114	11.335426	25.818838
O	12.786157	6.656391	22.146274
O	13.910357	9.836108	20.199103
O	9.413558	6.656391	20.199103
O	10.537758	9.836108	18.251932
O	12.786157	6.656391	18.251932
O	16.030713	11.335426	23.871667
O	11.533914	8.155709	23.871667
O	14.906513	8.155709	21.924496
O	14.906513	8.155709	25.818838
O	12.658114	11.335426	21.924496
Ca	12.722136	8.995908	22.035385
Ca	12.722136	8.995908	18.362821
Ca	9.541602	8.995908	20.199103
Ca	11.661958	5.997272	20.199103
Sb	8.481424	5.997272	14.690257
Sb	8.481424	5.997272	18.362821
Sb	11.661958	5.997272	16.526539
Sb	9.541602	8.995908	16.526539
