40

Be	0.000000	0.000000	0.000000
N	1.702943	1.702943	1.702943
O	0.000000	1.702943	1.702943
O	1.702943	0.000000	1.702943
O	1.702943	1.702943	0.000000
Be	0.000000	0.000000	3.405885
N	1.702943	1.702943	5.108828
O	0.000000	1.702943	5.108828
O	1.702943	0.000000	5.108828
O	1.702943	1.702943	3.405885
Be	0.000000	3.405885	0.000000
N	1.702943	5.108828	1.702943
O	0.000000	5.108828	1.702943
O	1.702943	3.405885	1.702943
O	1.702943	5.108828	0.000000
Be	0.000000	3.405885	3.405885
N	1.702943	5.108828	5.108828
O	0.000000	5.108828	5.108828
O	1.702943	3.405885	5.108828
O	1.702943	5.108828	3.405885
Be	3.405885	0.000000	0.000000
N	5.108828	1.702943	1.702943
O	3.405885	1.702943	1.702943
O	5.108828	0.000000	1.702943
O	5.108828	1.702943	0.000000
Be	3.405885	0.000000	3.405885
N	5.108828	1.702943	5.108828
O	3.405885	1.702943	5.108828
O	5.108828	0.000000	5.108828
O	5.108828	1.702943	3.405885
Be	3.405885	3.405885	0.000000
N	5.108828	5.108828	1.702943
O	3.405885	5.108828	1.702943
O	5.108828	3.405885	1.702943
O	5.108828	5.108828	0.000000
Be	3.405885	3.405885	3.405885
N	5.108828	5.108828	5.108828
O	3.405885	5.108828	5.108828
O	5.108828	3.405885	5.108828
O	5.108828	5.108828	3.405885
