40

F	0.000000	1.978772	1.978772
F	1.978772	0.000000	1.978772
F	1.978772	1.978772	0.000000
Mg	1.978772	1.978772	1.978772
O	0.000000	0.000000	0.000000
F	0.000000	1.978772	5.936316
F	1.978772	0.000000	5.936316
F	1.978772	1.978772	3.957544
Mg	1.978772	1.978772	5.936316
O	0.000000	0.000000	3.957544
F	0.000000	5.936316	1.978772
F	1.978772	3.957544	1.978772
F	1.978772	5.936316	0.000000
Mg	1.978772	5.936316	1.978772
O	0.000000	3.957544	0.000000
F	0.000000	5.936316	5.936316
F	1.978772	3.957544	5.936316
F	1.978772	5.936316	3.957544
Mg	1.978772	5.936316	5.936316
O	0.000000	3.957544	3.957544
F	3.957544	1.978772	1.978772
F	5.936316	0.000000	1.978772
F	5.936316	1.978772	0.000000
Mg	5.936316	1.978772	1.978772
O	3.957544	0.000000	0.000000
F	3.957544	1.978772	5.936316
F	5.936316	0.000000	5.936316
F	5.936316	1.978772	3.957544
Mg	5.936316	1.978772	5.936316
O	3.957544	0.000000	3.957544
F	3.957544	5.936316	1.978772
F	5.936316	3.957544	1.978772
F	5.936316	5.936316	0.000000
Mg	5.936316	5.936316	1.978772
O	3.957544	3.957544	0.000000
F	3.957544	5.936316	5.936316
F	5.936316	3.957544	5.936316
F	5.936316	5.936316	3.957544
Mg	5.936316	5.936316	5.936316
O	3.957544	3.957544	3.957544
