40

O	2.591283	2.591283	2.591283
Sr	2.591283	0.000000	2.591283
Sr	0.000000	2.591283	2.591283
Sr	2.591283	2.591283	0.000000
Sn	0.000000	0.000000	0.000000
O	2.591283	2.591283	7.773848
Sr	2.591283	0.000000	7.773848
Sr	0.000000	2.591283	7.773848
Sr	2.591283	2.591283	5.182565
Sn	0.000000	0.000000	5.182565
O	2.591283	7.773848	2.591283
Sr	2.591283	5.182565	2.591283
Sr	0.000000	7.773848	2.591283
Sr	2.591283	7.773848	0.000000
Sn	0.000000	5.182565	0.000000
O	2.591283	7.773848	7.773848
Sr	2.591283	5.182565	7.773848
Sr	0.000000	7.773848	7.773848
Sr	2.591283	7.773848	5.182565
Sn	0.000000	5.182565	5.182565
O	7.773848	2.591283	2.591283
Sr	7.773848	0.000000	2.591283
Sr	5.182565	2.591283	2.591283
Sr	7.773848	2.591283	0.000000
Sn	5.182565	0.000000	0.000000
O	7.773848	2.591283	7.773848
Sr	7.773848	0.000000	7.773848
Sr	5.182565	2.591283	7.773848
Sr	7.773848	2.591283	5.182565
Sn	5.182565	0.000000	5.182565
O	7.773848	7.773848	2.591283
Sr	7.773848	5.182565	2.591283
Sr	5.182565	7.773848	2.591283
Sr	7.773848	7.773848	0.000000
Sn	5.182565	5.182565	0.000000
O	7.773848	7.773848	7.773848
Sr	7.773848	5.182565	7.773848
Sr	5.182565	7.773848	7.773848
Sr	7.773848	7.773848	5.182565
Sn	5.182565	5.182565	5.182565
