40

Al	0.000000	0.000000	0.000000
O	0.000000	1.954530	1.954530
O	1.954530	0.000000	1.954530
O	1.954530	1.954530	0.000000
Ru	1.954530	1.954530	1.954530
Al	0.000000	0.000000	3.909060
O	0.000000	1.954530	5.863591
O	1.954530	0.000000	5.863591
O	1.954530	1.954530	3.909060
Ru	1.954530	1.954530	5.863591
Al	0.000000	3.909060	0.000000
O	0.000000	5.863591	1.954530
O	1.954530	3.909060	1.954530
O	1.954530	5.863591	0.000000
Ru	1.954530	5.863591	1.954530
Al	0.000000	3.909060	3.909060
O	0.000000	5.863591	5.863591
O	1.954530	3.909060	5.863591
O	1.954530	5.863591	3.909060
Ru	1.954530	5.863591	5.863591
Al	3.909060	0.000000	0.000000
O	3.909060	1.954530	1.954530
O	5.863591	0.000000	1.954530
O	5.863591	1.954530	0.000000
Ru	5.863591	1.954530	1.954530
Al	3.909060	0.000000	3.909060
O	3.909060	1.954530	5.863591
O	5.863591	0.000000	5.863591
O	5.863591	1.954530	3.909060
Ru	5.863591	1.954530	5.863591
Al	3.909060	3.909060	0.000000
O	3.909060	5.863591	1.954530
O	5.863591	3.909060	1.954530
O	5.863591	5.863591	0.000000
Ru	5.863591	5.863591	1.954530
Al	3.909060	3.909060	3.909060
O	3.909060	5.863591	5.863591
O	5.863591	3.909060	5.863591
O	5.863591	5.863591	3.909060
Ru	5.863591	5.863591	5.863591
