40

Ir	1.953536	1.953536	1.953536
O	0.000000	1.953536	1.953536
O	1.953536	0.000000	1.953536
O	1.953536	1.953536	0.000000
P	0.000000	0.000000	0.000000
Ir	1.953536	1.953536	5.860609
O	0.000000	1.953536	5.860609
O	1.953536	0.000000	5.860609
O	1.953536	1.953536	3.907073
P	0.000000	0.000000	3.907073
Ir	1.953536	5.860609	1.953536
O	0.000000	5.860609	1.953536
O	1.953536	3.907073	1.953536
O	1.953536	5.860609	0.000000
P	0.000000	3.907073	0.000000
Ir	1.953536	5.860609	5.860609
O	0.000000	5.860609	5.860609
O	1.953536	3.907073	5.860609
O	1.953536	5.860609	3.907073
P	0.000000	3.907073	3.907073
Ir	5.860609	1.953536	1.953536
O	3.907073	1.953536	1.953536
O	5.860609	0.000000	1.953536
O	5.860609	1.953536	0.000000
P	3.907073	0.000000	0.000000
Ir	5.860609	1.953536	5.860609
O	3.907073	1.953536	5.860609
O	5.860609	0.000000	5.860609
O	5.860609	1.953536	3.907073
P	3.907073	0.000000	3.907073
Ir	5.860609	5.860609	1.953536
O	3.907073	5.860609	1.953536
O	5.860609	3.907073	1.953536
O	5.860609	5.860609	0.000000
P	3.907073	3.907073	0.000000
Ir	5.860609	5.860609	5.860609
O	3.907073	5.860609	5.860609
O	5.860609	3.907073	5.860609
O	5.860609	5.860609	3.907073
P	3.907073	3.907073	3.907073
