40

Al	0.000000	0.000000	0.000000
O	1.933470	0.000000	1.933470
O	0.000000	1.933470	1.933470
O	1.933470	1.933470	0.000000
Ru	1.933470	1.933470	1.933470
Al	0.000000	0.000000	3.866946
O	1.933470	0.000000	5.800416
O	0.000000	1.933470	5.800416
O	1.933470	1.933470	3.866946
Ru	1.933470	1.933470	5.800416
Al	0.000000	3.866946	0.000000
O	1.933470	3.866946	1.933470
O	0.000000	5.800416	1.933470
O	1.933470	5.800416	0.000000
Ru	1.933470	5.800416	1.933470
Al	0.000000	3.866946	3.866946
O	1.933470	3.866946	5.800416
O	0.000000	5.800416	5.800416
O	1.933470	5.800416	3.866946
Ru	1.933470	5.800416	5.800416
Al	3.866946	0.000000	0.000000
O	5.800416	0.000000	1.933470
O	3.866946	1.933470	1.933470
O	5.800416	1.933470	0.000000
Ru	5.800416	1.933470	1.933470
Al	3.866946	0.000000	3.866946
O	5.800416	0.000000	5.800416
O	3.866946	1.933470	5.800416
O	5.800416	1.933470	3.866946
Ru	5.800416	1.933470	5.800416
Al	3.866946	3.866946	0.000000
O	5.800416	3.866946	1.933470
O	3.866946	5.800416	1.933470
O	5.800416	5.800416	0.000000
Ru	5.800416	5.800416	1.933470
Al	3.866946	3.866946	3.866946
O	5.800416	3.866946	5.800416
O	3.866946	5.800416	5.800416
O	5.800416	5.800416	3.866946
Ru	5.800416	5.800416	5.800416
