40

B	0.000000	0.000000	0.000000
Ba	2.298902	2.298902	2.298902
O	0.000000	2.298902	2.298902
O	2.298902	0.000000	2.298902
O	2.298902	2.298902	0.000000
B	0.000000	0.000000	4.597804
Ba	2.298902	2.298902	6.896706
O	0.000000	2.298902	6.896706
O	2.298902	0.000000	6.896706
O	2.298902	2.298902	4.597804
B	0.000000	4.597804	0.000000
Ba	2.298902	6.896706	2.298902
O	0.000000	6.896706	2.298902
O	2.298902	4.597804	2.298902
O	2.298902	6.896706	0.000000
B	0.000000	4.597804	4.597804
Ba	2.298902	6.896706	6.896706
O	0.000000	6.896706	6.896706
O	2.298902	4.597804	6.896706
O	2.298902	6.896706	4.597804
B	4.597804	0.000000	0.000000
Ba	6.896706	2.298902	2.298902
O	4.597804	2.298902	2.298902
O	6.896706	0.000000	2.298902
O	6.896706	2.298902	0.000000
B	4.597804	0.000000	4.597804
Ba	6.896706	2.298902	6.896706
O	4.597804	2.298902	6.896706
O	6.896706	0.000000	6.896706
O	6.896706	2.298902	4.597804
B	4.597804	4.597804	0.000000
Ba	6.896706	6.896706	2.298902
O	4.597804	6.896706	2.298902
O	6.896706	4.597804	2.298902
O	6.896706	6.896706	0.000000
B	4.597804	4.597804	4.597804
Ba	6.896706	6.896706	6.896706
O	4.597804	6.896706	6.896706
O	6.896706	4.597804	6.896706
O	6.896706	6.896706	4.597804
