40

Cs	0.000000	0.000000	0.000000
O	0.000000	2.103549	2.103549
O	2.103549	0.000000	2.103549
O	2.103549	2.103549	0.000000
Sb	2.103549	2.103549	2.103549
Cs	0.000000	0.000000	4.207099
O	0.000000	2.103549	6.310648
O	2.103549	0.000000	6.310648
O	2.103549	2.103549	4.207099
Sb	2.103549	2.103549	6.310648
Cs	0.000000	4.207099	0.000000
O	0.000000	6.310648	2.103549
O	2.103549	4.207099	2.103549
O	2.103549	6.310648	0.000000
Sb	2.103549	6.310648	2.103549
Cs	0.000000	4.207099	4.207099
O	0.000000	6.310648	6.310648
O	2.103549	4.207099	6.310648
O	2.103549	6.310648	4.207099
Sb	2.103549	6.310648	6.310648
Cs	4.207099	0.000000	0.000000
O	4.207099	2.103549	2.103549
O	6.310648	0.000000	2.103549
O	6.310648	2.103549	0.000000
Sb	6.310648	2.103549	2.103549
Cs	4.207099	0.000000	4.207099
O	4.207099	2.103549	6.310648
O	6.310648	0.000000	6.310648
O	6.310648	2.103549	4.207099
Sb	6.310648	2.103549	6.310648
Cs	4.207099	4.207099	0.000000
O	4.207099	6.310648	2.103549
O	6.310648	4.207099	2.103549
O	6.310648	6.310648	0.000000
Sb	6.310648	6.310648	2.103549
Cs	4.207099	4.207099	4.207099
O	4.207099	6.310648	6.310648
O	6.310648	4.207099	6.310648
O	6.310648	6.310648	4.207099
Sb	6.310648	6.310648	6.310648
