40

Ge	1.952573	1.952573	1.952573
O	0.000000	1.952573	1.952573
O	1.952573	0.000000	1.952573
O	1.952573	1.952573	0.000000
Te	0.000000	0.000000	0.000000
Ge	1.952573	1.952573	5.857720
O	0.000000	1.952573	5.857720
O	1.952573	0.000000	5.857720
O	1.952573	1.952573	3.905146
Te	0.000000	0.000000	3.905146
Ge	1.952573	5.857720	1.952573
O	0.000000	5.857720	1.952573
O	1.952573	3.905146	1.952573
O	1.952573	5.857720	0.000000
Te	0.000000	3.905146	0.000000
Ge	1.952573	5.857720	5.857720
O	0.000000	5.857720	5.857720
O	1.952573	3.905146	5.857720
O	1.952573	5.857720	3.905146
Te	0.000000	3.905146	3.905146
Ge	5.857720	1.952573	1.952573
O	3.905146	1.952573	1.952573
O	5.857720	0.000000	1.952573
O	5.857720	1.952573	0.000000
Te	3.905146	0.000000	0.000000
Ge	5.857720	1.952573	5.857720
O	3.905146	1.952573	5.857720
O	5.857720	0.000000	5.857720
O	5.857720	1.952573	3.905146
Te	3.905146	0.000000	3.905146
Ge	5.857720	5.857720	1.952573
O	3.905146	5.857720	1.952573
O	5.857720	3.905146	1.952573
O	5.857720	5.857720	0.000000
Te	3.905146	3.905146	0.000000
Ge	5.857720	5.857720	5.857720
O	3.905146	5.857720	5.857720
O	5.857720	3.905146	5.857720
O	5.857720	5.857720	3.905146
Te	3.905146	3.905146	3.905146
