40

Np	2.208570	2.208570	2.208570
O	2.208570	2.208570	0.000000
O	0.000000	2.208570	2.208570
O	2.208570	0.000000	2.208570
Pr_3	0.000000	0.000000	0.000000
Np	2.208570	2.208570	6.625700
O	2.208570	2.208570	4.417130
O	0.000000	2.208570	6.625700
O	2.208570	0.000000	6.625700
Pr_3	0.000000	0.000000	4.417130
Np	2.208570	6.625700	2.208570
O	2.208570	6.625700	0.000000
O	0.000000	6.625700	2.208570
O	2.208570	4.417130	2.208570
Pr_3	0.000000	4.417130	0.000000
Np	2.208570	6.625700	6.625700
O	2.208570	6.625700	4.417130
O	0.000000	6.625700	6.625700
O	2.208570	4.417130	6.625700
Pr_3	0.000000	4.417130	4.417130
Np	6.625700	2.208570	2.208570
O	6.625700	2.208570	0.000000
O	4.417130	2.208570	2.208570
O	6.625700	0.000000	2.208570
Pr_3	4.417130	0.000000	0.000000
Np	6.625700	2.208570	6.625700
O	6.625700	2.208570	4.417130
O	4.417130	2.208570	6.625700
O	6.625700	0.000000	6.625700
Pr_3	4.417130	0.000000	4.417130
Np	6.625700	6.625700	2.208570
O	6.625700	6.625700	0.000000
O	4.417130	6.625700	2.208570
O	6.625700	4.417130	2.208570
Pr_3	4.417130	4.417130	0.000000
Np	6.625700	6.625700	6.625700
O	6.625700	6.625700	4.417130
O	4.417130	6.625700	6.625700
O	6.625700	4.417130	6.625700
Pr_3	4.417130	4.417130	4.417130
