40

Ga	1.932340	1.932340	1.932340
O	1.932340	1.932340	0.000000
O	0.000000	1.932340	1.932340
O	1.932340	0.000000	1.932340
Pr	0.000000	0.000000	0.000000
Ga	1.932340	1.932340	5.797020
O	1.932340	1.932340	3.864680
O	0.000000	1.932340	5.797020
O	1.932340	0.000000	5.797020
Pr	0.000000	0.000000	3.864680
Ga	1.932340	5.797020	1.932340
O	1.932340	5.797020	0.000000
O	0.000000	5.797020	1.932340
O	1.932340	3.864680	1.932340
Pr	0.000000	3.864680	0.000000
Ga	1.932340	5.797020	5.797020
O	1.932340	5.797020	3.864680
O	0.000000	5.797020	5.797020
O	1.932340	3.864680	5.797020
Pr	0.000000	3.864680	3.864680
Ga	5.797020	1.932340	1.932340
O	5.797020	1.932340	0.000000
O	3.864680	1.932340	1.932340
O	5.797020	0.000000	1.932340
Pr	3.864680	0.000000	0.000000
Ga	5.797020	1.932340	5.797020
O	5.797020	1.932340	3.864680
O	3.864680	1.932340	5.797020
O	5.797020	0.000000	5.797020
Pr	3.864680	0.000000	3.864680
Ga	5.797020	5.797020	1.932340
O	5.797020	5.797020	0.000000
O	3.864680	5.797020	1.932340
O	5.797020	3.864680	1.932340
Pr	3.864680	3.864680	0.000000
Ga	5.797020	5.797020	5.797020
O	5.797020	5.797020	3.864680
O	3.864680	5.797020	5.797020
O	5.797020	3.864680	5.797020
Pr	3.864680	3.864680	3.864680
