40

O	2.171990	2.171990	0.000000
O	0.000000	2.171990	2.171990
O	2.171990	0.000000	2.171990
Pa	2.171990	2.171990	2.171990
Ru	0.000000	0.000000	0.000000
O	2.171990	2.171990	4.343983
O	0.000000	2.171990	6.515973
O	2.171990	0.000000	6.515973
Pa	2.171990	2.171990	6.515973
Ru	0.000000	0.000000	4.343983
O	2.171990	6.515973	0.000000
O	0.000000	6.515973	2.171990
O	2.171990	4.343983	2.171990
Pa	2.171990	6.515973	2.171990
Ru	0.000000	4.343983	0.000000
O	2.171990	6.515973	4.343983
O	0.000000	6.515973	6.515973
O	2.171990	4.343983	6.515973
Pa	2.171990	6.515973	6.515973
Ru	0.000000	4.343983	4.343983
O	6.515973	2.171990	0.000000
O	4.343983	2.171990	2.171990
O	6.515973	0.000000	2.171990
Pa	6.515973	2.171990	2.171990
Ru	4.343983	0.000000	0.000000
O	6.515973	2.171990	4.343983
O	4.343983	2.171990	6.515973
O	6.515973	0.000000	6.515973
Pa	6.515973	2.171990	6.515973
Ru	4.343983	0.000000	4.343983
O	6.515973	6.515973	0.000000
O	4.343983	6.515973	2.171990
O	6.515973	4.343983	2.171990
Pa	6.515973	6.515973	2.171990
Ru	4.343983	4.343983	0.000000
O	6.515973	6.515973	4.343983
O	4.343983	6.515973	6.515973
O	6.515973	4.343983	6.515973
Pa	6.515973	6.515973	6.515973
Ru	4.343983	4.343983	4.343983
