112

Bi	0.000000	0.000000	0.000000
Bi	2.660477	-2.660638	-2.660638
O	1.170282	1.170722	-1.170722
O	-1.490195	1.489916	-3.831370
O	3.830769	-1.489916	-1.489916
O	1.490195	-1.489916	-3.831370
O	1.170282	4.150554	-4.150554
O	4.150672	4.150554	-1.170722
O	4.150672	1.170722	-4.150554
O	6.811159	1.489916	-1.489916
Rb	-1.330239	-1.330324	-3.990962
Rb	1.330239	1.330324	-3.990962
Rb	3.990716	1.330324	-1.330324
Rb	6.651203	-1.330324	-1.330324
Bi	5.320961	5.321283	0.000000
Bi	7.981438	2.660645	-2.660638
O	6.491243	6.492005	-1.170722
O	3.830766	6.811199	-3.831370
O	9.151730	3.831367	-1.489916
O	6.811156	3.831367	-3.831370
O	6.491243	9.471837	-4.150554
O	9.471633	9.471837	-1.170722
O	9.471633	6.492005	-4.150554
O	12.132120	6.811199	-1.489916
Rb	3.990722	3.990959	-3.990962
Rb	6.651199	6.651607	-3.990962
Rb	9.311677	6.651607	-1.330324
Rb	11.972163	3.990959	-1.330324
Bi	-5.320961	0.000000	-5.321283
Bi	-2.660484	-2.660638	-7.981921
O	-4.150678	1.170722	-6.492005
O	-6.811156	1.489916	-9.152653
O	-1.490191	-1.489916	-6.811199
O	-3.830766	-1.489916	-9.152653
O	-4.150678	4.150554	-9.471837
O	-1.170289	4.150554	-6.492005
O	-1.170289	1.170722	-9.471837
O	1.490198	1.489916	-6.811199
Rb	-6.651199	-1.330324	-9.312245
Rb	-3.990722	1.330324	-9.312245
Rb	-1.330245	1.330324	-6.651607
Rb	1.330242	-1.330324	-6.651607
Bi	0.000000	5.321283	-5.321283
Bi	2.660477	2.660645	-7.981921
O	1.170282	6.492005	-6.492005
O	-1.490195	6.811199	-9.152653
O	3.830769	3.831367	-6.811199
O	1.490195	3.831367	-9.152653
O	1.170282	9.471837	-9.471837
O	4.150672	9.471837	-6.492005
O	4.150672	6.492005	-9.471837
O	6.811159	6.811199	-6.811199
Rb	-1.330239	3.990959	-9.312245
Rb	1.330239	6.651607	-9.312245
Rb	3.990716	6.651607	-6.651607
Rb	6.651203	3.990959	-6.651607
Bi	5.320961	-5.321283	0.000000
Bi	7.981438	-7.981921	-2.660638
O	6.491243	-4.150561	-1.170722
O	3.830766	-3.831367	-3.831370
O	9.151730	-6.811199	-1.489916
O	6.811156	-6.811199	-3.831370
O	6.491243	-1.170729	-4.150554
O	9.471633	-1.170729	-1.170722
O	9.471633	-4.150561	-4.150554
O	12.132120	-3.831367	-1.489916
Rb	3.990722	-6.651607	-3.990962
Rb	6.651199	-3.990959	-3.990962
Rb	9.311677	-3.990959	-1.330324
Rb	11.972163	-6.651607	-1.330324
Bi	10.641922	0.000000	0.000000
Bi	13.302399	-2.660638	-2.660638
O	11.812204	1.170722	-1.170722
O	9.151727	1.489916	-3.831370
O	14.472691	-1.489916	-1.489916
O	12.132116	-1.489916	-3.831370
O	11.812204	4.150554	-4.150554
O	14.792594	4.150554	-1.170722
O	14.792594	1.170722	-4.150554
O	17.453080	1.489916	-1.489916
Rb	9.311683	-1.330324	-3.990962
Rb	11.972160	1.330324	-3.990962
Rb	14.632637	1.330324	-1.330324
Rb	17.293124	-1.330324	-1.330324
Bi	0.000000	-5.321283	-5.321283
Bi	2.660477	-7.981921	-7.981921
O	1.170282	-4.150561	-6.492005
O	-1.490195	-3.831367	-9.152653
O	3.830769	-6.811199	-6.811199
O	1.490195	-6.811199	-9.152653
O	1.170282	-1.170729	-9.471837
O	4.150672	-1.170729	-6.492005
O	4.150672	-4.150561	-9.471837
O	6.811159	-3.831367	-6.811199
Rb	-1.330239	-6.651607	-9.312245
Rb	1.330239	-3.990959	-9.312245
Rb	3.990716	-3.990959	-6.651607
Rb	6.651203	-6.651607	-6.651607
Bi	5.320961	0.000000	-5.321283
Bi	7.981438	-2.660638	-7.981921
O	6.491243	1.170722	-6.492005
O	3.830766	1.489916	-9.152653
O	9.151730	-1.489916	-6.811199
O	6.811156	-1.489916	-9.152653
O	6.491243	4.150554	-9.471837
O	9.471633	4.150554	-6.492005
O	9.471633	1.170722	-9.471837
O	12.132120	1.489916	-6.811199
Rb	3.990722	-1.330324	-9.312245
Rb	6.651199	1.330324	-9.312245
Rb	9.311677	1.330324	-6.651607
Rb	11.972163	-1.330324	-6.651607
