40

Fe	0.000000	0.000000	0.000000
Mo	1.962223	1.962223	1.962223
O	0.000000	1.962223	1.962223
O	1.962223	0.000000	1.962223
O	1.962223	1.962223	0.000000
Fe	0.000000	0.000000	3.924445
Mo	1.962223	1.962223	5.886668
O	0.000000	1.962223	5.886668
O	1.962223	0.000000	5.886668
O	1.962223	1.962223	3.924445
Fe	0.000000	3.924445	0.000000
Mo	1.962223	5.886668	1.962223
O	0.000000	5.886668	1.962223
O	1.962223	3.924445	1.962223
O	1.962223	5.886668	0.000000
Fe	0.000000	3.924445	3.924445
Mo	1.962223	5.886668	5.886668
O	0.000000	5.886668	5.886668
O	1.962223	3.924445	5.886668
O	1.962223	5.886668	3.924445
Fe	3.924445	0.000000	0.000000
Mo	5.886668	1.962223	1.962223
O	3.924445	1.962223	1.962223
O	5.886668	0.000000	1.962223
O	5.886668	1.962223	0.000000
Fe	3.924445	0.000000	3.924445
Mo	5.886668	1.962223	5.886668
O	3.924445	1.962223	5.886668
O	5.886668	0.000000	5.886668
O	5.886668	1.962223	3.924445
Fe	3.924445	3.924445	0.000000
Mo	5.886668	5.886668	1.962223
O	3.924445	5.886668	1.962223
O	5.886668	3.924445	1.962223
O	5.886668	5.886668	0.000000
Fe	3.924445	3.924445	3.924445
Mo	5.886668	5.886668	5.886668
O	3.924445	5.886668	5.886668
O	5.886668	3.924445	5.886668
O	5.886668	5.886668	3.924445
