40

Fe	1.913141	1.913141	1.913141
Hf	0.000000	0.000000	0.000000
O	0.000000	1.913141	1.913141
O	1.913141	0.000000	1.913141
O	1.913141	1.913141	0.000000
Fe	1.913141	1.913141	5.739423
Hf	0.000000	0.000000	3.826282
O	0.000000	1.913141	5.739423
O	1.913141	0.000000	5.739423
O	1.913141	1.913141	3.826282
Fe	1.913141	5.739423	1.913141
Hf	0.000000	3.826282	0.000000
O	0.000000	5.739423	1.913141
O	1.913141	3.826282	1.913141
O	1.913141	5.739423	0.000000
Fe	1.913141	5.739423	5.739423
Hf	0.000000	3.826282	3.826282
O	0.000000	5.739423	5.739423
O	1.913141	3.826282	5.739423
O	1.913141	5.739423	3.826282
Fe	5.739423	1.913141	1.913141
Hf	3.826282	0.000000	0.000000
O	3.826282	1.913141	1.913141
O	5.739423	0.000000	1.913141
O	5.739423	1.913141	0.000000
Fe	5.739423	1.913141	5.739423
Hf	3.826282	0.000000	3.826282
O	3.826282	1.913141	5.739423
O	5.739423	0.000000	5.739423
O	5.739423	1.913141	3.826282
Fe	5.739423	5.739423	1.913141
Hf	3.826282	3.826282	0.000000
O	3.826282	5.739423	1.913141
O	5.739423	3.826282	1.913141
O	5.739423	5.739423	0.000000
Fe	5.739423	5.739423	5.739423
Hf	3.826282	3.826282	3.826282
O	3.826282	5.739423	5.739423
O	5.739423	3.826282	5.739423
O	5.739423	5.739423	3.826282
