40

K	0.000000	0.000000	0.000000
Nb	2.030037	2.030037	2.030037
O	2.030037	2.030037	0.000000
O	2.030037	0.000000	2.030037
O	0.000000	2.030037	2.030037
K	0.000000	0.000000	4.060075
Nb	2.030037	2.030037	6.090112
O	2.030037	2.030037	4.060075
O	2.030037	0.000000	6.090112
O	0.000000	2.030037	6.090112
K	0.000000	4.060075	0.000000
Nb	2.030037	6.090112	2.030037
O	2.030037	6.090112	0.000000
O	2.030037	4.060075	2.030037
O	0.000000	6.090112	2.030037
K	0.000000	4.060075	4.060075
Nb	2.030037	6.090112	6.090112
O	2.030037	6.090112	4.060075
O	2.030037	4.060075	6.090112
O	0.000000	6.090112	6.090112
K	4.060075	0.000000	0.000000
Nb	6.090112	2.030037	2.030037
O	6.090112	2.030037	0.000000
O	6.090112	0.000000	2.030037
O	4.060075	2.030037	2.030037
K	4.060075	0.000000	4.060075
Nb	6.090112	2.030037	6.090112
O	6.090112	2.030037	4.060075
O	6.090112	0.000000	6.090112
O	4.060075	2.030037	6.090112
K	4.060075	4.060075	0.000000
Nb	6.090112	6.090112	2.030037
O	6.090112	6.090112	0.000000
O	6.090112	4.060075	2.030037
O	4.060075	6.090112	2.030037
K	4.060075	4.060075	4.060075
Nb	6.090112	6.090112	6.090112
O	6.090112	6.090112	4.060075
O	6.090112	4.060075	6.090112
O	4.060075	6.090112	6.090112
