40

Cu	0.000000	0.000000	0.000000
O	0.000000	1.952480	1.952480
O	1.952480	0.000000	1.952480
O	1.952480	1.952480	0.000000
Pt	1.952480	1.952480	1.952480
Cu	0.000000	0.000000	3.904949
O	0.000000	1.952480	5.857429
O	1.952480	0.000000	5.857429
O	1.952480	1.952480	3.904949
Pt	1.952480	1.952480	5.857429
Cu	0.000000	3.904949	0.000000
O	0.000000	5.857429	1.952480
O	1.952480	3.904949	1.952480
O	1.952480	5.857429	0.000000
Pt	1.952480	5.857429	1.952480
Cu	0.000000	3.904949	3.904949
O	0.000000	5.857429	5.857429
O	1.952480	3.904949	5.857429
O	1.952480	5.857429	3.904949
Pt	1.952480	5.857429	5.857429
Cu	3.904949	0.000000	0.000000
O	3.904949	1.952480	1.952480
O	5.857429	0.000000	1.952480
O	5.857429	1.952480	0.000000
Pt	5.857429	1.952480	1.952480
Cu	3.904949	0.000000	3.904949
O	3.904949	1.952480	5.857429
O	5.857429	0.000000	5.857429
O	5.857429	1.952480	3.904949
Pt	5.857429	1.952480	5.857429
Cu	3.904949	3.904949	0.000000
O	3.904949	5.857429	1.952480
O	5.857429	3.904949	1.952480
O	5.857429	5.857429	0.000000
Pt	5.857429	5.857429	1.952480
Cu	3.904949	3.904949	3.904949
O	3.904949	5.857429	5.857429
O	5.857429	3.904949	5.857429
O	5.857429	5.857429	3.904949
Pt	5.857429	5.857429	5.857429
