40

Cu	1.862820	1.862820	1.862820
O	1.862820	1.862820	0.000000
O	0.000000	1.862820	1.862820
O	1.862820	0.000000	1.862820
Pt	0.000000	0.000000	0.000000
Cu	1.862820	1.862820	5.588470
O	1.862820	1.862820	3.725650
O	0.000000	1.862820	5.588470
O	1.862820	0.000000	5.588470
Pt	0.000000	0.000000	3.725650
Cu	1.862820	5.588470	1.862820
O	1.862820	5.588470	0.000000
O	0.000000	5.588470	1.862820
O	1.862820	3.725650	1.862820
Pt	0.000000	3.725650	0.000000
Cu	1.862820	5.588470	5.588470
O	1.862820	5.588470	3.725650
O	0.000000	5.588470	5.588470
O	1.862820	3.725650	5.588470
Pt	0.000000	3.725650	3.725650
Cu	5.588470	1.862820	1.862820
O	5.588470	1.862820	0.000000
O	3.725650	1.862820	1.862820
O	5.588470	0.000000	1.862820
Pt	3.725650	0.000000	0.000000
Cu	5.588470	1.862820	5.588470
O	5.588470	1.862820	3.725650
O	3.725650	1.862820	5.588470
O	5.588470	0.000000	5.588470
Pt	3.725650	0.000000	3.725650
Cu	5.588470	5.588470	1.862820
O	5.588470	5.588470	0.000000
O	3.725650	5.588470	1.862820
O	5.588470	3.725650	1.862820
Pt	3.725650	3.725650	0.000000
Cu	5.588470	5.588470	5.588470
O	5.588470	5.588470	3.725650
O	3.725650	5.588470	5.588470
O	5.588470	3.725650	5.588470
Pt	3.725650	3.725650	3.725650
