40

O	2.094220	0.000000	2.094220
O	0.000000	2.094220	2.094220
O	2.094220	2.094220	0.000000
Sn_d	2.094220	2.094220	2.094220
Th	0.000000	0.000000	0.000000
O	2.094220	0.000000	6.282649
O	0.000000	2.094220	6.282649
O	2.094220	2.094220	4.188429
Sn_d	2.094220	2.094220	6.282649
Th	0.000000	0.000000	4.188429
O	2.094220	4.188429	2.094220
O	0.000000	6.282649	2.094220
O	2.094220	6.282649	0.000000
Sn_d	2.094220	6.282649	2.094220
Th	0.000000	4.188429	0.000000
O	2.094220	4.188429	6.282649
O	0.000000	6.282649	6.282649
O	2.094220	6.282649	4.188429
Sn_d	2.094220	6.282649	6.282649
Th	0.000000	4.188429	4.188429
O	6.282649	0.000000	2.094220
O	4.188429	2.094220	2.094220
O	6.282649	2.094220	0.000000
Sn_d	6.282649	2.094220	2.094220
Th	4.188429	0.000000	0.000000
O	6.282649	0.000000	6.282649
O	4.188429	2.094220	6.282649
O	6.282649	2.094220	4.188429
Sn_d	6.282649	2.094220	6.282649
Th	4.188429	0.000000	4.188429
O	6.282649	4.188429	2.094220
O	4.188429	6.282649	2.094220
O	6.282649	6.282649	0.000000
Sn_d	6.282649	6.282649	2.094220
Th	4.188429	4.188429	0.000000
O	6.282649	4.188429	6.282649
O	4.188429	6.282649	6.282649
O	6.282649	6.282649	4.188429
Sn_d	6.282649	6.282649	6.282649
Th	4.188429	4.188429	4.188429
