112

As	0.000000	0.000000	0.000000
As	2.375693	-2.376976	-2.376976
Er	-1.187846	-1.188488	-3.565464
Er	3.563539	1.188488	-1.188488
Er	5.939232	-1.188488	-1.188488
Er	1.187846	1.188488	-3.565464
O	3.682652	-1.069054	-1.069054
O	-1.068733	1.069054	-3.684897
O	1.068733	-1.069054	-3.684897
O	1.306960	1.307921	-1.307921
O	5.820118	1.069054	-1.069054
O	1.306960	3.446030	-3.446030
O	3.444426	3.446030	-1.307921
O	3.444426	1.307921	-3.446030
As	4.751385	4.753951	0.000000
As	7.127078	2.376976	-2.376976
Er	3.563539	3.565464	-3.565464
Er	8.314924	5.942439	-1.188488
Er	10.690617	3.565464	-1.188488
Er	5.939232	5.942439	-3.565464
O	8.434038	3.684897	-1.069054
O	3.682652	5.823006	-3.684897
O	5.820118	3.684897	-3.684897
O	6.058345	6.061873	-1.307921
O	10.571504	5.823006	-1.069054
O	6.058345	8.199981	-3.446030
O	8.195811	8.199981	-1.307921
O	8.195811	6.061873	-3.446030
As	-4.751385	0.000000	-4.753951
As	-2.375693	-2.376976	-7.130927
Er	-5.939232	-1.188488	-8.319415
Er	-1.187846	1.188488	-5.942439
Er	1.187846	-1.188488	-5.942439
Er	-3.563539	1.188488	-8.319415
O	-1.068733	-1.069054	-5.823006
O	-5.820118	1.069054	-8.438849
O	-3.682652	-1.069054	-8.438849
O	-3.444426	1.307921	-6.061873
O	1.068733	1.069054	-5.823006
O	-3.444426	3.446030	-8.199981
O	-1.306960	3.446030	-6.061873
O	-1.306960	1.307921	-8.199981
As	0.000000	4.753951	-4.753951
As	2.375693	2.376976	-7.130927
Er	-1.187846	3.565464	-8.319415
Er	3.563539	5.942439	-5.942439
Er	5.939232	3.565464	-5.942439
Er	1.187846	5.942439	-8.319415
O	3.682652	3.684897	-5.823006
O	-1.068733	5.823006	-8.438849
O	1.068733	3.684897	-8.438849
O	1.306960	6.061873	-6.061873
O	5.820118	5.823006	-5.823006
O	1.306960	8.199981	-8.199981
O	3.444426	8.199981	-6.061873
O	3.444426	6.061873	-8.199981
As	4.751385	-4.753951	0.000000
As	7.127078	-7.130927	-2.376976
Er	3.563539	-5.942439	-3.565464
Er	8.314924	-3.565464	-1.188488
Er	10.690617	-5.942439	-1.188488
Er	5.939232	-3.565464	-3.565464
O	8.434038	-5.823006	-1.069054
O	3.682652	-3.684897	-3.684897
O	5.820118	-5.823006	-3.684897
O	6.058345	-3.446030	-1.307921
O	10.571504	-3.684897	-1.069054
O	6.058345	-1.307921	-3.446030
O	8.195811	-1.307921	-1.307921
O	8.195811	-3.446030	-3.446030
As	9.502771	0.000000	0.000000
As	11.878463	-2.376976	-2.376976
Er	8.314924	-1.188488	-3.565464
Er	13.066310	1.188488	-1.188488
Er	15.442002	-1.188488	-1.188488
Er	10.690617	1.188488	-3.565464
O	13.185423	-1.069054	-1.069054
O	8.434038	1.069054	-3.684897
O	10.571504	-1.069054	-3.684897
O	10.809730	1.307921	-1.307921
O	15.322889	1.069054	-1.069054
O	10.809730	3.446030	-3.446030
O	12.947196	3.446030	-1.307921
O	12.947196	1.307921	-3.446030
As	0.000000	-4.753951	-4.753951
As	2.375693	-7.130927	-7.130927
Er	-1.187846	-5.942439	-8.319415
Er	3.563539	-3.565464	-5.942439
Er	5.939232	-5.942439	-5.942439
Er	1.187846	-3.565464	-8.319415
O	3.682652	-5.823006	-5.823006
O	-1.068733	-3.684897	-8.438849
O	1.068733	-5.823006	-8.438849
O	1.306960	-3.446030	-6.061873
O	5.820118	-3.684897	-5.823006
O	1.306960	-1.307921	-8.199981
O	3.444426	-1.307921	-6.061873
O	3.444426	-3.446030	-8.199981
As	4.751385	0.000000	-4.753951
As	7.127078	-2.376976	-7.130927
Er	3.563539	-1.188488	-8.319415
Er	8.314924	1.188488	-5.942439
Er	10.690617	-1.188488	-5.942439
Er	5.939232	1.188488	-8.319415
O	8.434038	-1.069054	-5.823006
O	3.682652	1.069054	-8.438849
O	5.820118	-1.069054	-8.438849
O	6.058345	1.307921	-6.061873
O	10.571504	1.069054	-5.823006
O	6.058345	3.446030	-8.199981
O	8.195811	3.446030	-6.061873
O	8.195811	1.307921	-8.199981
