40

O	0.000000	2.316395	2.316395
O	2.316395	0.000000	2.316395
O	2.316395	2.316395	0.000000
Sr	2.316395	2.316395	2.316395
W	0.000000	0.000000	0.000000
O	0.000000	2.316395	6.949186
O	2.316395	0.000000	6.949186
O	2.316395	2.316395	4.632791
Sr	2.316395	2.316395	6.949186
W	0.000000	0.000000	4.632791
O	0.000000	6.949186	2.316395
O	2.316395	4.632791	2.316395
O	2.316395	6.949186	0.000000
Sr	2.316395	6.949186	2.316395
W	0.000000	4.632791	0.000000
O	0.000000	6.949186	6.949186
O	2.316395	4.632791	6.949186
O	2.316395	6.949186	4.632791
Sr	2.316395	6.949186	6.949186
W	0.000000	4.632791	4.632791
O	4.632791	2.316395	2.316395
O	6.949186	0.000000	2.316395
O	6.949186	2.316395	0.000000
Sr	6.949186	2.316395	2.316395
W	4.632791	0.000000	0.000000
O	4.632791	2.316395	6.949186
O	6.949186	0.000000	6.949186
O	6.949186	2.316395	4.632791
Sr	6.949186	2.316395	6.949186
W	4.632791	0.000000	4.632791
O	4.632791	6.949186	2.316395
O	6.949186	4.632791	2.316395
O	6.949186	6.949186	0.000000
Sr	6.949186	6.949186	2.316395
W	4.632791	4.632791	0.000000
O	4.632791	6.949186	6.949186
O	6.949186	4.632791	6.949186
O	6.949186	6.949186	4.632791
Sr	6.949186	6.949186	6.949186
W	4.632791	4.632791	4.632791
