40

Mo	1.990997	1.990997	1.990997
O	0.000000	1.990997	1.990997
O	1.990997	0.000000	1.990997
O	1.990997	1.990997	0.000000
Ti	0.000000	0.000000	0.000000
Mo	1.990997	1.990997	5.972990
O	0.000000	1.990997	5.972990
O	1.990997	0.000000	5.972990
O	1.990997	1.990997	3.981993
Ti	0.000000	0.000000	3.981993
Mo	1.990997	5.972990	1.990997
O	0.000000	5.972990	1.990997
O	1.990997	3.981993	1.990997
O	1.990997	5.972990	0.000000
Ti	0.000000	3.981993	0.000000
Mo	1.990997	5.972990	5.972990
O	0.000000	5.972990	5.972990
O	1.990997	3.981993	5.972990
O	1.990997	5.972990	3.981993
Ti	0.000000	3.981993	3.981993
Mo	5.972990	1.990997	1.990997
O	3.981993	1.990997	1.990997
O	5.972990	0.000000	1.990997
O	5.972990	1.990997	0.000000
Ti	3.981993	0.000000	0.000000
Mo	5.972990	1.990997	5.972990
O	3.981993	1.990997	5.972990
O	5.972990	0.000000	5.972990
O	5.972990	1.990997	3.981993
Ti	3.981993	0.000000	3.981993
Mo	5.972990	5.972990	1.990997
O	3.981993	5.972990	1.990997
O	5.972990	3.981993	1.990997
O	5.972990	5.972990	0.000000
Ti	3.981993	3.981993	0.000000
Mo	5.972990	5.972990	5.972990
O	3.981993	5.972990	5.972990
O	5.972990	3.981993	5.972990
O	5.972990	5.972990	3.981993
Ti	3.981993	3.981993	3.981993
