40

Bi	0.000000	0.000000	0.000000
O	2.211844	2.211844	0.000000
O	2.211844	0.000000	2.211844
O	0.000000	2.211844	2.211844
Sr	2.211844	2.211844	2.211844
Bi	0.000000	0.000000	4.423692
O	2.211844	2.211844	4.423692
O	2.211844	0.000000	6.635536
O	0.000000	2.211844	6.635536
Sr	2.211844	2.211844	6.635536
Bi	0.000000	4.423692	0.000000
O	2.211844	6.635536	0.000000
O	2.211844	4.423692	2.211844
O	0.000000	6.635536	2.211844
Sr	2.211844	6.635536	2.211844
Bi	0.000000	4.423692	4.423692
O	2.211844	6.635536	4.423692
O	2.211844	4.423692	6.635536
O	0.000000	6.635536	6.635536
Sr	2.211844	6.635536	6.635536
Bi	4.423692	0.000000	0.000000
O	6.635536	2.211844	0.000000
O	6.635536	0.000000	2.211844
O	4.423692	2.211844	2.211844
Sr	6.635536	2.211844	2.211844
Bi	4.423692	0.000000	4.423692
O	6.635536	2.211844	4.423692
O	6.635536	0.000000	6.635536
O	4.423692	2.211844	6.635536
Sr	6.635536	2.211844	6.635536
Bi	4.423692	4.423692	0.000000
O	6.635536	6.635536	0.000000
O	6.635536	4.423692	2.211844
O	4.423692	6.635536	2.211844
Sr	6.635536	6.635536	2.211844
Bi	4.423692	4.423692	4.423692
O	6.635536	6.635536	4.423692
O	6.635536	4.423692	6.635536
O	4.423692	6.635536	6.635536
Sr	6.635536	6.635536	6.635536
