40

B	0.000000	0.000000	0.000000
C	1.633639	1.633639	1.633639
O	0.000000	1.633639	1.633639
O	1.633639	0.000000	1.633639
O	1.633639	1.633639	0.000000
B	0.000000	0.000000	3.267279
C	1.633639	1.633639	4.900918
O	0.000000	1.633639	4.900918
O	1.633639	0.000000	4.900918
O	1.633639	1.633639	3.267279
B	0.000000	3.267279	0.000000
C	1.633639	4.900918	1.633639
O	0.000000	4.900918	1.633639
O	1.633639	3.267279	1.633639
O	1.633639	4.900918	0.000000
B	0.000000	3.267279	3.267279
C	1.633639	4.900918	4.900918
O	0.000000	4.900918	4.900918
O	1.633639	3.267279	4.900918
O	1.633639	4.900918	3.267279
B	3.267279	0.000000	0.000000
C	4.900918	1.633639	1.633639
O	3.267279	1.633639	1.633639
O	4.900918	0.000000	1.633639
O	4.900918	1.633639	0.000000
B	3.267279	0.000000	3.267279
C	4.900918	1.633639	4.900918
O	3.267279	1.633639	4.900918
O	4.900918	0.000000	4.900918
O	4.900918	1.633639	3.267279
B	3.267279	3.267279	0.000000
C	4.900918	4.900918	1.633639
O	3.267279	4.900918	1.633639
O	4.900918	3.267279	1.633639
O	4.900918	4.900918	0.000000
B	3.267279	3.267279	3.267279
C	4.900918	4.900918	4.900918
O	3.267279	4.900918	4.900918
O	4.900918	3.267279	4.900918
O	4.900918	4.900918	3.267279
