40

Au	0.000000	0.000000	0.000000
O	1.809210	0.000000	1.809210
O	0.000000	1.809210	1.809210
O	1.809210	1.809210	0.000000
Si	1.809210	1.809210	1.809210
Au	0.000000	0.000000	3.618427
O	1.809210	0.000000	5.427637
O	0.000000	1.809210	5.427637
O	1.809210	1.809210	3.618427
Si	1.809210	1.809210	5.427637
Au	0.000000	3.618427	0.000000
O	1.809210	3.618427	1.809210
O	0.000000	5.427637	1.809210
O	1.809210	5.427637	0.000000
Si	1.809210	5.427637	1.809210
Au	0.000000	3.618427	3.618427
O	1.809210	3.618427	5.427637
O	0.000000	5.427637	5.427637
O	1.809210	5.427637	3.618427
Si	1.809210	5.427637	5.427637
Au	3.618427	0.000000	0.000000
O	5.427637	0.000000	1.809210
O	3.618427	1.809210	1.809210
O	5.427637	1.809210	0.000000
Si	5.427637	1.809210	1.809210
Au	3.618427	0.000000	3.618427
O	5.427637	0.000000	5.427637
O	3.618427	1.809210	5.427637
O	5.427637	1.809210	3.618427
Si	5.427637	1.809210	5.427637
Au	3.618427	3.618427	0.000000
O	5.427637	3.618427	1.809210
O	3.618427	5.427637	1.809210
O	5.427637	5.427637	0.000000
Si	5.427637	5.427637	1.809210
Au	3.618427	3.618427	3.618427
O	5.427637	3.618427	5.427637
O	3.618427	5.427637	5.427637
O	5.427637	5.427637	3.618427
Si	5.427637	5.427637	5.427637
