40

Cs	0.000000	0.000000	0.000000
O	2.029704	2.029704	0.000000
O	2.029704	0.000000	2.029704
O	0.000000	2.029704	2.029704
W	2.029704	2.029704	2.029704
Cs	0.000000	0.000000	4.059402
O	2.029704	2.029704	4.059402
O	2.029704	0.000000	6.089106
O	0.000000	2.029704	6.089106
W	2.029704	2.029704	6.089106
Cs	0.000000	4.059402	0.000000
O	2.029704	6.089106	0.000000
O	2.029704	4.059402	2.029704
O	0.000000	6.089106	2.029704
W	2.029704	6.089106	2.029704
Cs	0.000000	4.059402	4.059402
O	2.029704	6.089106	4.059402
O	2.029704	4.059402	6.089106
O	0.000000	6.089106	6.089106
W	2.029704	6.089106	6.089106
Cs	4.059402	0.000000	0.000000
O	6.089106	2.029704	0.000000
O	6.089106	0.000000	2.029704
O	4.059402	2.029704	2.029704
W	6.089106	2.029704	2.029704
Cs	4.059402	0.000000	4.059402
O	6.089106	2.029704	4.059402
O	6.089106	0.000000	6.089106
O	4.059402	2.029704	6.089106
W	6.089106	2.029704	6.089106
Cs	4.059402	4.059402	0.000000
O	6.089106	6.089106	0.000000
O	6.089106	4.059402	2.029704
O	4.059402	6.089106	2.029704
W	6.089106	6.089106	2.029704
Cs	4.059402	4.059402	4.059402
O	6.089106	6.089106	4.059402
O	6.089106	4.059402	6.089106
O	4.059402	6.089106	6.089106
W	6.089106	6.089106	6.089106
