40

Ag	0.000000	0.000000	0.000000
O	0.000000	1.969547	1.969547
O	1.969547	0.000000	1.969547
O	1.969547	1.969547	0.000000
Rh	1.969547	1.969547	1.969547
Ag	0.000000	0.000000	3.939093
O	0.000000	1.969547	5.908640
O	1.969547	0.000000	5.908640
O	1.969547	1.969547	3.939093
Rh	1.969547	1.969547	5.908640
Ag	0.000000	3.939093	0.000000
O	0.000000	5.908640	1.969547
O	1.969547	3.939093	1.969547
O	1.969547	5.908640	0.000000
Rh	1.969547	5.908640	1.969547
Ag	0.000000	3.939093	3.939093
O	0.000000	5.908640	5.908640
O	1.969547	3.939093	5.908640
O	1.969547	5.908640	3.939093
Rh	1.969547	5.908640	5.908640
Ag	3.939093	0.000000	0.000000
O	3.939093	1.969547	1.969547
O	5.908640	0.000000	1.969547
O	5.908640	1.969547	0.000000
Rh	5.908640	1.969547	1.969547
Ag	3.939093	0.000000	3.939093
O	3.939093	1.969547	5.908640
O	5.908640	0.000000	5.908640
O	5.908640	1.969547	3.939093
Rh	5.908640	1.969547	5.908640
Ag	3.939093	3.939093	0.000000
O	3.939093	5.908640	1.969547
O	5.908640	3.939093	1.969547
O	5.908640	5.908640	0.000000
Rh	5.908640	5.908640	1.969547
Ag	3.939093	3.939093	3.939093
O	3.939093	5.908640	5.908640
O	5.908640	3.939093	5.908640
O	5.908640	5.908640	3.939093
Rh	5.908640	5.908640	5.908640
