40

Np	2.141112	2.141112	2.141112
O	2.141112	2.141112	0.000000
O	2.141112	0.000000	2.141112
O	0.000000	2.141112	2.141112
Si	0.000000	0.000000	0.000000
Np	2.141112	2.141112	6.423342
O	2.141112	2.141112	4.282230
O	2.141112	0.000000	6.423342
O	0.000000	2.141112	6.423342
Si	0.000000	0.000000	4.282230
Np	2.141112	6.423342	2.141112
O	2.141112	6.423342	0.000000
O	2.141112	4.282230	2.141112
O	0.000000	6.423342	2.141112
Si	0.000000	4.282230	0.000000
Np	2.141112	6.423342	6.423342
O	2.141112	6.423342	4.282230
O	2.141112	4.282230	6.423342
O	0.000000	6.423342	6.423342
Si	0.000000	4.282230	4.282230
Np	6.423342	2.141112	2.141112
O	6.423342	2.141112	0.000000
O	6.423342	0.000000	2.141112
O	4.282230	2.141112	2.141112
Si	4.282230	0.000000	0.000000
Np	6.423342	2.141112	6.423342
O	6.423342	2.141112	4.282230
O	6.423342	0.000000	6.423342
O	4.282230	2.141112	6.423342
Si	4.282230	0.000000	4.282230
Np	6.423342	6.423342	2.141112
O	6.423342	6.423342	0.000000
O	6.423342	4.282230	2.141112
O	4.282230	6.423342	2.141112
Si	4.282230	4.282230	0.000000
Np	6.423342	6.423342	6.423342
O	6.423342	6.423342	4.282230
O	6.423342	4.282230	6.423342
O	4.282230	6.423342	6.423342
Si	4.282230	4.282230	4.282230
