112

Er	0.000000	0.000000	0.000000
Er	2.207414	-2.205917	-2.205917
Fe	-1.103707	-1.102958	-3.308875
Fe	3.311121	1.102958	-1.102958
Fe	5.518534	-1.102958	-1.102958
Fe	1.103707	1.102958	-3.308875
O	3.456882	-1.004790	-1.004790
O	-0.957945	1.004790	-3.407044
O	0.957945	-1.004790	-3.407044
O	1.249469	1.201127	-1.201127
O	5.372772	1.004790	-1.004790
O	1.249469	3.210707	-3.210707
O	3.165359	3.210707	-1.201127
O	3.165359	1.201127	-3.210707
Er	4.414827	4.411834	0.000000
Er	6.622241	2.205917	-2.205917
Fe	3.311121	3.308875	-3.308875
Fe	7.725948	5.514792	-1.102958
Fe	9.933362	3.308875	-1.102958
Fe	5.518534	5.514792	-3.308875
O	7.871710	3.407044	-1.004790
O	3.456882	5.416624	-3.407044
O	5.372773	3.407044	-3.407044
O	5.664296	5.612961	-1.201127
O	9.787600	5.416624	-1.004790
O	5.664296	7.622541	-3.210707
O	7.580186	7.622541	-1.201127
O	7.580186	5.612961	-3.210707
Er	-4.414827	0.000000	-4.411834
Er	-2.207414	-2.205917	-6.617751
Fe	-5.518534	-1.102958	-7.720709
Fe	-1.103707	1.102958	-5.514792
Fe	1.103707	-1.102958	-5.514792
Fe	-3.311121	1.102958	-7.720709
O	-0.957945	-1.004790	-5.416624
O	-5.372772	1.004790	-7.818878
O	-3.456882	-1.004790	-7.818878
O	-3.165359	1.201127	-5.612961
O	0.957945	1.004790	-5.416624
O	-3.165359	3.210707	-7.622541
O	-1.249469	3.210707	-5.612961
O	-1.249469	1.201127	-7.622541
Er	0.000000	4.411834	-4.411834
Er	2.207414	2.205917	-6.617751
Fe	-1.103707	3.308875	-7.720709
Fe	3.311121	5.514792	-5.514792
Fe	5.518534	3.308875	-5.514792
Fe	1.103707	5.514792	-7.720709
O	3.456882	3.407044	-5.416624
O	-0.957945	5.416624	-7.818878
O	0.957945	3.407044	-7.818878
O	1.249469	5.612961	-5.612961
O	5.372772	5.416624	-5.416624
O	1.249469	7.622541	-7.622541
O	3.165359	7.622541	-5.612961
O	3.165359	5.612961	-7.622541
Er	4.414827	-4.411834	0.000000
Er	6.622241	-6.617751	-2.205917
Fe	3.311121	-5.514792	-3.308875
Fe	7.725948	-3.308875	-1.102958
Fe	9.933362	-5.514792	-1.102958
Fe	5.518534	-3.308875	-3.308875
O	7.871710	-5.416624	-1.004790
O	3.456882	-3.407044	-3.407044
O	5.372773	-5.416624	-3.407044
O	5.664296	-3.210707	-1.201127
O	9.787600	-3.407044	-1.004790
O	5.664296	-1.201127	-3.210707
O	7.580186	-1.201127	-1.201127
O	7.580186	-3.210707	-3.210707
Er	8.829655	0.000000	0.000000
Er	11.037068	-2.205917	-2.205917
Fe	7.725948	-1.102958	-3.308875
Fe	12.140775	1.102958	-1.102958
Fe	14.348189	-1.102958	-1.102958
Fe	9.933362	1.102958	-3.308875
O	12.286537	-1.004790	-1.004790
O	7.871710	1.004790	-3.407044
O	9.787600	-1.004790	-3.407044
O	10.079123	1.201127	-1.201127
O	14.202427	1.004790	-1.004790
O	10.079123	3.210707	-3.210707
O	11.995014	3.210707	-1.201127
O	11.995014	1.201127	-3.210707
Er	0.000000	-4.411834	-4.411834
Er	2.207414	-6.617751	-6.617751
Fe	-1.103707	-5.514792	-7.720709
Fe	3.311121	-3.308875	-5.514792
Fe	5.518534	-5.514792	-5.514792
Fe	1.103707	-3.308875	-7.720709
O	3.456882	-5.416624	-5.416624
O	-0.957945	-3.407044	-7.818878
O	0.957945	-5.416624	-7.818878
O	1.249469	-3.210707	-5.612961
O	5.372772	-3.407044	-5.416624
O	1.249469	-1.201127	-7.622541
O	3.165359	-1.201127	-5.612961
O	3.165359	-3.210707	-7.622541
Er	4.414827	0.000000	-4.411834
Er	6.622241	-2.205917	-6.617751
Fe	3.311121	-1.102958	-7.720709
Fe	7.725948	1.102958	-5.514792
Fe	9.933362	-1.102958	-5.514792
Fe	5.518534	1.102958	-7.720709
O	7.871710	-1.004790	-5.416624
O	3.456882	1.004790	-7.818878
O	5.372773	-1.004790	-7.818878
O	5.664296	1.201127	-5.612961
O	9.787600	1.004790	-5.416624
O	5.664296	3.210707	-7.622541
O	7.580186	3.210707	-5.612961
O	7.580186	1.201127	-7.622541
