40

Au	0.000000	0.000000	0.000000
O	2.080537	2.080537	0.000000
O	2.080537	0.000000	2.080537
O	0.000000	2.080537	2.080537
Yb	2.080537	2.080537	2.080537
Au	0.000000	0.000000	4.161069
O	2.080537	2.080537	4.161069
O	2.080537	0.000000	6.241605
O	0.000000	2.080537	6.241605
Yb	2.080537	2.080537	6.241605
Au	0.000000	4.161069	0.000000
O	2.080537	6.241605	0.000000
O	2.080537	4.161069	2.080537
O	0.000000	6.241605	2.080537
Yb	2.080537	6.241605	2.080537
Au	0.000000	4.161069	4.161069
O	2.080537	6.241605	4.161069
O	2.080537	4.161069	6.241605
O	0.000000	6.241605	6.241605
Yb	2.080537	6.241605	6.241605
Au	4.161069	0.000000	0.000000
O	6.241605	2.080537	0.000000
O	6.241605	0.000000	2.080537
O	4.161069	2.080537	2.080537
Yb	6.241605	2.080537	2.080537
Au	4.161069	0.000000	4.161069
O	6.241605	2.080537	4.161069
O	6.241605	0.000000	6.241605
O	4.161069	2.080537	6.241605
Yb	6.241605	2.080537	6.241605
Au	4.161069	4.161069	0.000000
O	6.241605	6.241605	0.000000
O	6.241605	4.161069	2.080537
O	4.161069	6.241605	2.080537
Yb	6.241605	6.241605	2.080537
Au	4.161069	4.161069	4.161069
O	6.241605	6.241605	4.161069
O	6.241605	4.161069	6.241605
O	4.161069	6.241605	6.241605
Yb	6.241605	6.241605	6.241605
