40

O	0.000000	1.861883	1.861883
O	1.861883	0.000000	1.861883
O	1.861883	1.861883	0.000000
Zn	1.861883	1.861883	1.861883
Zr	0.000000	0.000000	0.000000
O	0.000000	1.861883	5.585649
O	1.861883	0.000000	5.585649
O	1.861883	1.861883	3.723766
Zn	1.861883	1.861883	5.585649
Zr	0.000000	0.000000	3.723766
O	0.000000	5.585649	1.861883
O	1.861883	3.723766	1.861883
O	1.861883	5.585649	0.000000
Zn	1.861883	5.585649	1.861883
Zr	0.000000	3.723766	0.000000
O	0.000000	5.585649	5.585649
O	1.861883	3.723766	5.585649
O	1.861883	5.585649	3.723766
Zn	1.861883	5.585649	5.585649
Zr	0.000000	3.723766	3.723766
O	3.723766	1.861883	1.861883
O	5.585649	0.000000	1.861883
O	5.585649	1.861883	0.000000
Zn	5.585649	1.861883	1.861883
Zr	3.723766	0.000000	0.000000
O	3.723766	1.861883	5.585649
O	5.585649	0.000000	5.585649
O	5.585649	1.861883	3.723766
Zn	5.585649	1.861883	5.585649
Zr	3.723766	0.000000	3.723766
O	3.723766	5.585649	1.861883
O	5.585649	3.723766	1.861883
O	5.585649	5.585649	0.000000
Zn	5.585649	5.585649	1.861883
Zr	3.723766	3.723766	0.000000
O	3.723766	5.585649	5.585649
O	5.585649	3.723766	5.585649
O	5.585649	5.585649	3.723766
Zn	5.585649	5.585649	5.585649
Zr	3.723766	3.723766	3.723766
