40

Lu	2.078574	2.078574	2.078574
O	2.078574	2.078574	0.000000
O	0.000000	2.078574	2.078574
O	2.078574	0.000000	2.078574
Re	0.000000	0.000000	0.000000
Lu	2.078574	2.078574	6.235729
O	2.078574	2.078574	4.157156
O	0.000000	2.078574	6.235729
O	2.078574	0.000000	6.235729
Re	0.000000	0.000000	4.157156
Lu	2.078574	6.235729	2.078574
O	2.078574	6.235729	0.000000
O	0.000000	6.235729	2.078574
O	2.078574	4.157156	2.078574
Re	0.000000	4.157156	0.000000
Lu	2.078574	6.235729	6.235729
O	2.078574	6.235729	4.157156
O	0.000000	6.235729	6.235729
O	2.078574	4.157156	6.235729
Re	0.000000	4.157156	4.157156
Lu	6.235729	2.078574	2.078574
O	6.235729	2.078574	0.000000
O	4.157156	2.078574	2.078574
O	6.235729	0.000000	2.078574
Re	4.157156	0.000000	0.000000
Lu	6.235729	2.078574	6.235729
O	6.235729	2.078574	4.157156
O	4.157156	2.078574	6.235729
O	6.235729	0.000000	6.235729
Re	4.157156	0.000000	4.157156
Lu	6.235729	6.235729	2.078574
O	6.235729	6.235729	0.000000
O	4.157156	6.235729	2.078574
O	6.235729	4.157156	2.078574
Re	4.157156	4.157156	0.000000
Lu	6.235729	6.235729	6.235729
O	6.235729	6.235729	4.157156
O	4.157156	6.235729	6.235729
O	6.235729	4.157156	6.235729
Re	4.157156	4.157156	4.157156
