40

Lu	0.000000	0.000000	0.000000
O	1.970063	1.970063	0.000000
O	1.970063	0.000000	1.970063
O	0.000000	1.970063	1.970063
Re	1.970063	1.970063	1.970063
Lu	0.000000	0.000000	3.940135
O	1.970063	1.970063	3.940135
O	1.970063	0.000000	5.910198
O	0.000000	1.970063	5.910198
Re	1.970063	1.970063	5.910198
Lu	0.000000	3.940135	0.000000
O	1.970063	5.910198	0.000000
O	1.970063	3.940135	1.970063
O	0.000000	5.910198	1.970063
Re	1.970063	5.910198	1.970063
Lu	0.000000	3.940135	3.940135
O	1.970063	5.910198	3.940135
O	1.970063	3.940135	5.910198
O	0.000000	5.910198	5.910198
Re	1.970063	5.910198	5.910198
Lu	3.940135	0.000000	0.000000
O	5.910198	1.970063	0.000000
O	5.910198	0.000000	1.970063
O	3.940135	1.970063	1.970063
Re	5.910198	1.970063	1.970063
Lu	3.940135	0.000000	3.940135
O	5.910198	1.970063	3.940135
O	5.910198	0.000000	5.910198
O	3.940135	1.970063	5.910198
Re	5.910198	1.970063	5.910198
Lu	3.940135	3.940135	0.000000
O	5.910198	5.910198	0.000000
O	5.910198	3.940135	1.970063
O	3.940135	5.910198	1.970063
Re	5.910198	5.910198	1.970063
Lu	3.940135	3.940135	3.940135
O	5.910198	5.910198	3.940135
O	5.910198	3.940135	5.910198
O	3.940135	5.910198	5.910198
Re	5.910198	5.910198	5.910198
