112

Cs	0.000000	0.000000	0.000000
Cs	2.411962	-2.412682	-2.412682
Mo	-1.205981	-1.206341	-3.619023
Mo	3.617943	1.206341	-1.206341
Mo	6.029904	-1.206341	-1.206341
Mo	1.205981	1.206341	-3.619023
O	3.926770	-0.896901	-0.896901
O	-0.897153	0.896901	-3.928463
O	0.897153	-0.896901	-3.928463
O	1.514808	1.515781	-1.515781
O	5.721077	0.896901	-0.896901
O	1.514808	3.309583	-3.309583
O	3.309115	3.309583	-1.515781
O	3.309115	1.515781	-3.309583
Cs	4.823924	4.825364	0.000000
Cs	7.235885	2.412682	-2.412682
Mo	3.617943	3.619023	-3.619023
Mo	8.441866	6.031705	-1.206341
Mo	10.853828	3.619023	-1.206341
Mo	6.029904	6.031705	-3.619023
O	8.750694	3.928463	-0.896901
O	3.926770	5.722265	-3.928463
O	5.721077	3.928463	-3.928463
O	6.338732	6.341145	-1.515781
O	10.545000	5.722265	-0.896901
O	6.338732	8.134947	-3.309583
O	8.133039	8.134947	-1.515781
O	8.133039	6.341145	-3.309583
Cs	-4.823924	0.000000	-4.825364
Cs	-2.411962	-2.412682	-7.238046
Mo	-6.029904	-1.206341	-8.444387
Mo	-1.205981	1.206341	-6.031705
Mo	1.205981	-1.206341	-6.031705
Mo	-3.617943	1.206341	-8.444387
O	-0.897153	-0.896901	-5.722265
O	-5.721077	0.896901	-8.753827
O	-3.926770	-0.896901	-8.753827
O	-3.309115	1.515781	-6.341145
O	0.897153	0.896901	-5.722265
O	-3.309115	3.309583	-8.134947
O	-1.514808	3.309583	-6.341145
O	-1.514808	1.515781	-8.134947
Cs	0.000000	4.825364	-4.825364
Cs	2.411962	2.412682	-7.238046
Mo	-1.205981	3.619023	-8.444387
Mo	3.617943	6.031705	-6.031705
Mo	6.029904	3.619023	-6.031705
Mo	1.205981	6.031705	-8.444387
O	3.926770	3.928463	-5.722265
O	-0.897153	5.722265	-8.753827
O	0.897153	3.928463	-8.753827
O	1.514808	6.341145	-6.341145
O	5.721077	5.722265	-5.722265
O	1.514808	8.134947	-8.134947
O	3.309115	8.134947	-6.341145
O	3.309115	6.341145	-8.134947
Cs	4.823924	-4.825364	0.000000
Cs	7.235885	-7.238046	-2.412682
Mo	3.617943	-6.031705	-3.619023
Mo	8.441866	-3.619023	-1.206341
Mo	10.853828	-6.031705	-1.206341
Mo	6.029904	-3.619023	-3.619023
O	8.750694	-5.722265	-0.896901
O	3.926770	-3.928463	-3.928463
O	5.721077	-5.722265	-3.928463
O	6.338732	-3.309583	-1.515781
O	10.545000	-3.928463	-0.896901
O	6.338732	-1.515781	-3.309583
O	8.133039	-1.515781	-1.515781
O	8.133039	-3.309583	-3.309583
Cs	9.647847	0.000000	0.000000
Cs	12.059809	-2.412682	-2.412682
Mo	8.441866	-1.206341	-3.619023
Mo	13.265790	1.206341	-1.206341
Mo	15.677752	-1.206341	-1.206341
Mo	10.853828	1.206341	-3.619023
O	13.574617	-0.896901	-0.896901
O	8.750694	0.896901	-3.928463
O	10.545000	-0.896901	-3.928463
O	11.162656	1.515781	-1.515781
O	15.368924	0.896901	-0.896901
O	11.162655	3.309583	-3.309583
O	12.956962	3.309583	-1.515781
O	12.956962	1.515781	-3.309583
Cs	0.000000	-4.825364	-4.825364
Cs	2.411962	-7.238046	-7.238046
Mo	-1.205981	-6.031705	-8.444387
Mo	3.617943	-3.619023	-6.031705
Mo	6.029904	-6.031705	-6.031705
Mo	1.205981	-3.619023	-8.444387
O	3.926770	-5.722265	-5.722265
O	-0.897153	-3.928463	-8.753827
O	0.897153	-5.722265	-8.753827
O	1.514808	-3.309583	-6.341145
O	5.721077	-3.928463	-5.722265
O	1.514808	-1.515781	-8.134947
O	3.309115	-1.515781	-6.341145
O	3.309115	-3.309583	-8.134947
Cs	4.823924	0.000000	-4.825364
Cs	7.235885	-2.412682	-7.238046
Mo	3.617943	-1.206341	-8.444387
Mo	8.441866	1.206341	-6.031705
Mo	10.853828	-1.206341	-6.031705
Mo	6.029904	1.206341	-8.444387
O	8.750694	-0.896901	-5.722265
O	3.926770	0.896901	-8.753827
O	5.721077	-0.896901	-8.753827
O	6.338732	1.515781	-6.341145
O	10.545000	0.896901	-5.722265
O	6.338732	3.309583	-8.134947
O	8.133039	3.309583	-6.341145
O	8.133039	1.515781	-8.134947
