80

Sr	2.789548	-0.001722	1.972513
Sr	0.001710	2.789548	1.972513
Ti	0.000000	0.000000	0.000000
Ti	2.791257	2.787826	0.000000
O	1.395629	1.393913	0.000000
O	4.186886	4.181740	0.000000
O	1.393919	-1.395635	3.944102
O	1.397338	4.183461	0.000923
O	2.791910	2.787173	1.972513
O	-0.000653	0.000653	1.972513
Sr	-0.001709	-2.789548	5.917539
Sr	-2.789548	0.001722	5.917539
Ti	-2.791257	-2.787826	3.945026
Ti	0.000000	0.000000	3.945026
O	-1.395629	-1.393913	3.945026
O	1.395629	1.393913	3.945026
O	-1.397338	-4.183461	7.889128
O	-1.393919	1.395635	3.945949
O	0.000653	-0.000653	5.917539
O	-2.791910	-2.787173	5.917539
Sr	2.792967	5.577374	1.972513
Sr	0.005129	8.368644	1.972513
Ti	0.003419	5.579096	0.000000
Ti	2.794676	8.366922	0.000000
O	1.399048	6.973009	0.000000
O	4.190305	9.760835	0.000000
O	1.397338	4.183461	3.944102
O	1.400757	9.762557	0.000923
O	2.795329	8.366269	1.972513
O	0.002766	5.579749	1.972513
Sr	0.001710	2.789548	5.917539
Sr	-2.786129	5.580817	5.917539
Ti	-2.787838	2.791270	3.945026
Ti	0.003419	5.579096	3.945026
O	-1.392210	4.185183	3.945026
O	1.399048	6.973009	3.945026
O	-1.393919	1.395635	7.889128
O	-1.390500	6.974731	3.945949
O	0.004072	5.578442	5.917539
O	-2.788491	2.791923	5.917539
Sr	8.368644	-0.005165	1.972513
Sr	5.580805	2.786105	1.972513
Ti	5.579096	-0.003443	0.000000
Ti	8.370353	2.784383	0.000000
O	6.974725	1.390470	0.000000
O	9.765982	4.178296	0.000000
O	6.973015	-1.399078	3.944102
O	6.976434	4.180018	0.000923
O	8.371006	2.783730	1.972513
O	5.578443	-0.002790	1.972513
Sr	5.577386	-2.792991	5.917539
Sr	2.789548	-0.001722	5.917539
Ti	2.787838	-2.791269	3.945026
Ti	5.579096	-0.003443	3.945026
O	4.183467	-1.397356	3.945026
O	6.974725	1.390470	3.945026
O	4.181758	-4.186904	7.889128
O	4.185177	1.392192	3.945949
O	5.579749	-0.004097	5.917539
O	2.787186	-2.790616	5.917539
Sr	8.372063	5.573931	1.972513
Sr	5.584224	8.365201	1.972513
Ti	5.582515	5.575653	0.000000
Ti	8.373772	8.363479	0.000000
O	6.978144	6.969566	0.000000
O	9.769401	9.757392	0.000000
O	6.976434	4.180018	3.944102
O	6.979853	9.759114	0.000923
O	8.374425	8.362826	1.972513
O	5.581862	5.576306	1.972513
Sr	5.580805	2.786105	5.917539
Sr	2.792967	5.577374	5.917539
Ti	2.791257	2.787826	3.945026
Ti	5.582515	5.575653	3.945026
O	4.186886	4.181740	3.945026
O	6.978144	6.969566	3.945026
O	4.185177	1.392192	7.889128
O	4.188596	6.971288	3.945949
O	5.583168	5.574999	5.917539
O	2.790605	2.788480	5.917539
