40

K	2.201012	2.201012	2.201012
O	0.000000	2.201012	2.201012
O	2.201012	0.000000	2.201012
O	2.201012	2.201012	0.000000
Sb	0.000000	0.000000	0.000000
K	2.201012	2.201012	6.603036
O	0.000000	2.201012	6.603036
O	2.201012	0.000000	6.603036
O	2.201012	2.201012	4.402024
Sb	0.000000	0.000000	4.402024
K	2.201012	6.603036	2.201012
O	0.000000	6.603036	2.201012
O	2.201012	4.402024	2.201012
O	2.201012	6.603036	0.000000
Sb	0.000000	4.402024	0.000000
K	2.201012	6.603036	6.603036
O	0.000000	6.603036	6.603036
O	2.201012	4.402024	6.603036
O	2.201012	6.603036	4.402024
Sb	0.000000	4.402024	4.402024
K	6.603036	2.201012	2.201012
O	4.402024	2.201012	2.201012
O	6.603036	0.000000	2.201012
O	6.603036	2.201012	0.000000
Sb	4.402024	0.000000	0.000000
K	6.603036	2.201012	6.603036
O	4.402024	2.201012	6.603036
O	6.603036	0.000000	6.603036
O	6.603036	2.201012	4.402024
Sb	4.402024	0.000000	4.402024
K	6.603036	6.603036	2.201012
O	4.402024	6.603036	2.201012
O	6.603036	4.402024	2.201012
O	6.603036	6.603036	0.000000
Sb	4.402024	4.402024	0.000000
K	6.603036	6.603036	6.603036
O	4.402024	6.603036	6.603036
O	6.603036	4.402024	6.603036
O	6.603036	6.603036	4.402024
Sb	4.402024	4.402024	4.402024
