120

Mn	0.000000	0.000000	0.000000
Ni	2.075325	-2.075325	0.000000
Ni	-2.075325	0.000000	-2.075325
Ni	0.000000	-2.075325	-2.075325
Ni	2.075325	2.075325	0.000000
Ni	0.000000	2.075325	-2.075325
Ni	2.075325	0.000000	-2.075325
O	1.921191	0.000000	0.000000
O	4.150651	-2.229459	0.000000
O	0.000000	0.000000	-1.921191
O	2.075325	-2.075325	-2.075325
O	2.075325	2.075325	-2.075325
O	4.150651	2.229459	0.000000
O	6.380110	0.000000	0.000000
O	4.150651	0.000000	-2.229459
Mn	4.150651	4.150651	0.000000
Ni	6.225976	2.075325	0.000000
Ni	2.075325	4.150651	-2.075325
Ni	4.150651	2.075325	-2.075325
Ni	6.225976	6.225976	0.000000
Ni	4.150651	6.225976	-2.075325
Ni	6.225976	4.150651	-2.075325
O	6.071842	4.150651	0.000000
O	8.301301	1.921191	0.000000
O	4.150651	4.150651	-1.921191
O	6.225976	2.075325	-2.075325
O	6.225976	6.225976	-2.075325
O	8.301301	6.380110	0.000000
O	10.530761	4.150651	0.000000
O	8.301301	4.150651	-2.229459
Mn	-4.150651	0.000000	-4.150651
Ni	-2.075325	-2.075325	-4.150651
Ni	-6.225976	0.000000	-6.225976
Ni	-4.150651	-2.075325	-6.225976
Ni	-2.075325	2.075325	-4.150651
Ni	-4.150651	2.075325	-6.225976
Ni	-2.075325	0.000000	-6.225976
O	-2.229459	0.000000	-4.150651
O	0.000000	-2.229459	-4.150651
O	-4.150651	0.000000	-6.071842
O	-2.075325	-2.075325	-6.225976
O	-2.075325	2.075325	-6.225976
O	0.000000	2.229459	-4.150651
O	2.229459	0.000000	-4.150651
O	0.000000	0.000000	-6.380110
Mn	0.000000	4.150651	-4.150651
Ni	2.075325	2.075325	-4.150651
Ni	-2.075325	4.150651	-6.225976
Ni	0.000000	2.075325	-6.225976
Ni	2.075325	6.225976	-4.150651
Ni	0.000000	6.225976	-6.225976
Ni	2.075325	4.150651	-6.225976
O	1.921191	4.150651	-4.150651
O	4.150651	1.921191	-4.150651
O	0.000000	4.150651	-6.071842
O	2.075325	2.075325	-6.225976
O	2.075325	6.225976	-6.225976
O	4.150651	6.380110	-4.150651
O	6.380110	4.150651	-4.150651
O	4.150651	4.150651	-6.380110
Mn	4.150651	-4.150651	0.000000
Ni	6.225976	-6.225976	0.000000
Ni	2.075325	-4.150651	-2.075325
Ni	4.150651	-6.225976	-2.075325
Ni	6.225976	-2.075325	0.000000
Ni	4.150651	-2.075325	-2.075325
Ni	6.225976	-4.150651	-2.075325
O	6.071842	-4.150651	0.000000
O	8.301301	-6.380110	0.000000
O	4.150651	-4.150651	-1.921191
O	6.225976	-6.225976	-2.075325
O	6.225976	-2.075325	-2.075325
O	8.301301	-1.921191	0.000000
O	10.530761	-4.150651	0.000000
O	8.301301	-4.150651	-2.229459
Mn	8.301301	0.000000	0.000000
Ni	10.376627	-2.075325	0.000000
Ni	6.225976	0.000000	-2.075325
Ni	8.301301	-2.075325	-2.075325
Ni	10.376627	2.075325	0.000000
Ni	8.301301	2.075325	-2.075325
Ni	10.376627	0.000000	-2.075325
O	10.222492	0.000000	0.000000
O	12.451952	-2.229459	0.000000
O	8.301301	0.000000	-1.921191
O	10.376627	-2.075325	-2.075325
O	10.376627	2.075325	-2.075325
O	12.451952	2.229459	0.000000
O	14.681411	0.000000	0.000000
O	12.451952	0.000000	-2.229459
Mn	0.000000	-4.150651	-4.150651
Ni	2.075325	-6.225976	-4.150651
Ni	-2.075325	-4.150651	-6.225976
Ni	0.000000	-6.225976	-6.225976
Ni	2.075325	-2.075325	-4.150651
Ni	0.000000	-2.075325	-6.225976
Ni	2.075325	-4.150651	-6.225976
O	1.921191	-4.150651	-4.150651
O	4.150651	-6.380110	-4.150651
O	0.000000	-4.150651	-6.071842
O	2.075325	-6.225976	-6.225976
O	2.075325	-2.075325	-6.225976
O	4.150651	-1.921191	-4.150651
O	6.380110	-4.150651	-4.150651
O	4.150651	-4.150651	-6.380110
Mn	4.150651	0.000000	-4.150651
Ni	6.225976	-2.075325	-4.150651
Ni	2.075325	0.000000	-6.225976
Ni	4.150651	-2.075325	-6.225976
Ni	6.225976	2.075325	-4.150651
Ni	4.150651	2.075325	-6.225976
Ni	6.225976	0.000000	-6.225976
O	6.071842	0.000000	-4.150651
O	8.301301	-2.229459	-4.150651
O	4.150651	0.000000	-6.071842
O	6.225976	-2.075325	-6.225976
O	6.225976	2.075325	-6.225976
O	8.301301	2.229459	-4.150651
O	10.530761	0.000000	-4.150651
O	8.301301	0.000000	-6.380110
