40

As	0.000000	0.000000	0.000000
Au	2.029116	2.029116	2.029116
O	0.000000	2.029116	2.029116
O	2.029116	0.000000	2.029116
O	2.029116	2.029116	0.000000
As	0.000000	0.000000	4.058232
Au	2.029116	2.029116	6.087349
O	0.000000	2.029116	6.087349
O	2.029116	0.000000	6.087349
O	2.029116	2.029116	4.058232
As	0.000000	4.058232	0.000000
Au	2.029116	6.087349	2.029116
O	0.000000	6.087349	2.029116
O	2.029116	4.058232	2.029116
O	2.029116	6.087349	0.000000
As	0.000000	4.058232	4.058232
Au	2.029116	6.087349	6.087349
O	0.000000	6.087349	6.087349
O	2.029116	4.058232	6.087349
O	2.029116	6.087349	4.058232
As	4.058232	0.000000	0.000000
Au	6.087349	2.029116	2.029116
O	4.058232	2.029116	2.029116
O	6.087349	0.000000	2.029116
O	6.087349	2.029116	0.000000
As	4.058232	0.000000	4.058232
Au	6.087349	2.029116	6.087349
O	4.058232	2.029116	6.087349
O	6.087349	0.000000	6.087349
O	6.087349	2.029116	4.058232
As	4.058232	4.058232	0.000000
Au	6.087349	6.087349	2.029116
O	4.058232	6.087349	2.029116
O	6.087349	4.058232	2.029116
O	6.087349	6.087349	0.000000
As	4.058232	4.058232	4.058232
Au	6.087349	6.087349	6.087349
O	4.058232	6.087349	6.087349
O	6.087349	4.058232	6.087349
O	6.087349	6.087349	4.058232
