40

Bi	0.000000	0.000000	0.000000
F	1.923841	1.923841	1.923841
O	0.000000	1.923841	1.923841
O	1.923841	0.000000	1.923841
O	1.923841	1.923841	0.000000
Bi	0.000000	0.000000	3.847681
F	1.923841	1.923841	5.771522
O	0.000000	1.923841	5.771522
O	1.923841	0.000000	5.771522
O	1.923841	1.923841	3.847681
Bi	0.000000	3.847681	0.000000
F	1.923841	5.771522	1.923841
O	0.000000	5.771522	1.923841
O	1.923841	3.847681	1.923841
O	1.923841	5.771522	0.000000
Bi	0.000000	3.847681	3.847681
F	1.923841	5.771522	5.771522
O	0.000000	5.771522	5.771522
O	1.923841	3.847681	5.771522
O	1.923841	5.771522	3.847681
Bi	3.847681	0.000000	0.000000
F	5.771522	1.923841	1.923841
O	3.847681	1.923841	1.923841
O	5.771522	0.000000	1.923841
O	5.771522	1.923841	0.000000
Bi	3.847681	0.000000	3.847681
F	5.771522	1.923841	5.771522
O	3.847681	1.923841	5.771522
O	5.771522	0.000000	5.771522
O	5.771522	1.923841	3.847681
Bi	3.847681	3.847681	0.000000
F	5.771522	5.771522	1.923841
O	3.847681	5.771522	1.923841
O	5.771522	3.847681	1.923841
O	5.771522	5.771522	0.000000
Bi	3.847681	3.847681	3.847681
F	5.771522	5.771522	5.771522
O	3.847681	5.771522	5.771522
O	5.771522	3.847681	5.771522
O	5.771522	5.771522	3.847681
