40

Ba	2.321214	2.321214	2.321214
Ge	0.000000	0.000000	0.000000
O	0.000000	2.321214	2.321214
O	2.321214	0.000000	2.321214
O	2.321214	2.321214	0.000000
Ba	2.321214	2.321214	6.963641
Ge	0.000000	0.000000	4.642427
O	0.000000	2.321214	6.963641
O	2.321214	0.000000	6.963641
O	2.321214	2.321214	4.642427
Ba	2.321214	6.963641	2.321214
Ge	0.000000	4.642427	0.000000
O	0.000000	6.963641	2.321214
O	2.321214	4.642427	2.321214
O	2.321214	6.963641	0.000000
Ba	2.321214	6.963641	6.963641
Ge	0.000000	4.642427	4.642427
O	0.000000	6.963641	6.963641
O	2.321214	4.642427	6.963641
O	2.321214	6.963641	4.642427
Ba	6.963641	2.321214	2.321214
Ge	4.642427	0.000000	0.000000
O	4.642427	2.321214	2.321214
O	6.963641	0.000000	2.321214
O	6.963641	2.321214	0.000000
Ba	6.963641	2.321214	6.963641
Ge	4.642427	0.000000	4.642427
O	4.642427	2.321214	6.963641
O	6.963641	0.000000	6.963641
O	6.963641	2.321214	4.642427
Ba	6.963641	6.963641	2.321214
Ge	4.642427	4.642427	0.000000
O	4.642427	6.963641	2.321214
O	6.963641	4.642427	2.321214
O	6.963641	6.963641	0.000000
Ba	6.963641	6.963641	6.963641
Ge	4.642427	4.642427	4.642427
O	4.642427	6.963641	6.963641
O	6.963641	4.642427	6.963641
O	6.963641	6.963641	4.642427
