40

Ge	0.000000	0.000000	0.000000
Mn	1.898573	1.898573	1.898573
O	0.000000	1.898573	1.898573
O	1.898573	0.000000	1.898573
O	1.898573	1.898573	0.000000
Ge	0.000000	0.000000	3.797145
Mn	1.898573	1.898573	5.695718
O	0.000000	1.898573	5.695718
O	1.898573	0.000000	5.695718
O	1.898573	1.898573	3.797145
Ge	0.000000	3.797145	0.000000
Mn	1.898573	5.695718	1.898573
O	0.000000	5.695718	1.898573
O	1.898573	3.797145	1.898573
O	1.898573	5.695718	0.000000
Ge	0.000000	3.797145	3.797145
Mn	1.898573	5.695718	5.695718
O	0.000000	5.695718	5.695718
O	1.898573	3.797145	5.695718
O	1.898573	5.695718	3.797145
Ge	3.797145	0.000000	0.000000
Mn	5.695718	1.898573	1.898573
O	3.797145	1.898573	1.898573
O	5.695718	0.000000	1.898573
O	5.695718	1.898573	0.000000
Ge	3.797145	0.000000	3.797145
Mn	5.695718	1.898573	5.695718
O	3.797145	1.898573	5.695718
O	5.695718	0.000000	5.695718
O	5.695718	1.898573	3.797145
Ge	3.797145	3.797145	0.000000
Mn	5.695718	5.695718	1.898573
O	3.797145	5.695718	1.898573
O	5.695718	3.797145	1.898573
O	5.695718	5.695718	0.000000
Ge	3.797145	3.797145	3.797145
Mn	5.695718	5.695718	5.695718
O	3.797145	5.695718	5.695718
O	5.695718	3.797145	5.695718
O	5.695718	5.695718	3.797145
