40

O	0.000000	1.909773	1.909773
O	1.909773	0.000000	1.909773
O	1.909773	1.909773	0.000000
Rh	0.000000	0.000000	0.000000
Zn	1.909773	1.909773	1.909773
O	0.000000	1.909773	5.729318
O	1.909773	0.000000	5.729318
O	1.909773	1.909773	3.819545
Rh	0.000000	0.000000	3.819545
Zn	1.909773	1.909773	5.729318
O	0.000000	5.729318	1.909773
O	1.909773	3.819545	1.909773
O	1.909773	5.729318	0.000000
Rh	0.000000	3.819545	0.000000
Zn	1.909773	5.729318	1.909773
O	0.000000	5.729318	5.729318
O	1.909773	3.819545	5.729318
O	1.909773	5.729318	3.819545
Rh	0.000000	3.819545	3.819545
Zn	1.909773	5.729318	5.729318
O	3.819545	1.909773	1.909773
O	5.729318	0.000000	1.909773
O	5.729318	1.909773	0.000000
Rh	3.819545	0.000000	0.000000
Zn	5.729318	1.909773	1.909773
O	3.819545	1.909773	5.729318
O	5.729318	0.000000	5.729318
O	5.729318	1.909773	3.819545
Rh	3.819545	0.000000	3.819545
Zn	5.729318	1.909773	5.729318
O	3.819545	5.729318	1.909773
O	5.729318	3.819545	1.909773
O	5.729318	5.729318	0.000000
Rh	3.819545	3.819545	0.000000
Zn	5.729318	5.729318	1.909773
O	3.819545	5.729318	5.729318
O	5.729318	3.819545	5.729318
O	5.729318	5.729318	3.819545
Rh	3.819545	3.819545	3.819545
Zn	5.729318	5.729318	5.729318
