40

O	0.000000	1.908492	1.908492
O	1.908492	0.000000	1.908492
O	1.908492	1.908492	0.000000
Rh	0.000000	0.000000	0.000000
Zn	1.908492	1.908492	1.908492
O	0.000000	1.908492	5.725477
O	1.908492	0.000000	5.725477
O	1.908492	1.908492	3.816985
Rh	0.000000	0.000000	3.816985
Zn	1.908492	1.908492	5.725477
O	0.000000	5.725477	1.908492
O	1.908492	3.816985	1.908492
O	1.908492	5.725477	0.000000
Rh	0.000000	3.816985	0.000000
Zn	1.908492	5.725477	1.908492
O	0.000000	5.725477	5.725477
O	1.908492	3.816985	5.725477
O	1.908492	5.725477	3.816985
Rh	0.000000	3.816985	3.816985
Zn	1.908492	5.725477	5.725477
O	3.816985	1.908492	1.908492
O	5.725477	0.000000	1.908492
O	5.725477	1.908492	0.000000
Rh	3.816985	0.000000	0.000000
Zn	5.725477	1.908492	1.908492
O	3.816985	1.908492	5.725477
O	5.725477	0.000000	5.725477
O	5.725477	1.908492	3.816985
Rh	3.816985	0.000000	3.816985
Zn	5.725477	1.908492	5.725477
O	3.816985	5.725477	1.908492
O	5.725477	3.816985	1.908492
O	5.725477	5.725477	0.000000
Rh	3.816985	3.816985	0.000000
Zn	5.725477	5.725477	1.908492
O	3.816985	5.725477	5.725477
O	5.725477	3.816985	5.725477
O	5.725477	5.725477	3.816985
Rh	3.816985	3.816985	3.816985
Zn	5.725477	5.725477	5.725477
