40

Ba	2.311527	2.311527	2.311527
Fe	0.000000	0.000000	0.000000
O	0.000000	2.311527	2.311527
O	2.311527	0.000000	2.311527
O	2.311527	2.311527	0.000000
Ba	2.311527	2.311527	6.934580
Fe	0.000000	0.000000	4.623053
O	0.000000	2.311527	6.934580
O	2.311527	0.000000	6.934580
O	2.311527	2.311527	4.623053
Ba	2.311527	6.934580	2.311527
Fe	0.000000	4.623053	0.000000
O	0.000000	6.934580	2.311527
O	2.311527	4.623053	2.311527
O	2.311527	6.934580	0.000000
Ba	2.311527	6.934580	6.934580
Fe	0.000000	4.623053	4.623053
O	0.000000	6.934580	6.934580
O	2.311527	4.623053	6.934580
O	2.311527	6.934580	4.623053
Ba	6.934580	2.311527	2.311527
Fe	4.623053	0.000000	0.000000
O	4.623053	2.311527	2.311527
O	6.934580	0.000000	2.311527
O	6.934580	2.311527	0.000000
Ba	6.934580	2.311527	6.934580
Fe	4.623053	0.000000	4.623053
O	4.623053	2.311527	6.934580
O	6.934580	0.000000	6.934580
O	6.934580	2.311527	4.623053
Ba	6.934580	6.934580	2.311527
Fe	4.623053	4.623053	0.000000
O	4.623053	6.934580	2.311527
O	6.934580	4.623053	2.311527
O	6.934580	6.934580	0.000000
Ba	6.934580	6.934580	6.934580
Fe	4.623053	4.623053	4.623053
O	4.623053	6.934580	6.934580
O	6.934580	4.623053	6.934580
O	6.934580	6.934580	4.623053
