112

Ag	0.000000	0.000000	0.000000
Ag	2.118201	-2.118202	-2.118202
Li	-1.059101	-1.059101	-3.177303
Li	3.177302	1.059101	-1.059101
Li	5.295504	-1.059101	-1.059101
Li	1.059101	1.059101	-3.177303
O	3.261504	-0.974047	-0.974047
O	-0.974899	0.974047	-3.262358
O	0.974899	-0.974047	-3.262358
O	1.143303	1.144155	-1.144155
O	5.211302	0.974047	-0.974047
O	1.143303	3.092249	-3.092249
O	3.093100	3.092249	-1.144155
O	3.093100	1.144155	-3.092249
Ag	4.236403	4.236404	0.000000
Ag	6.354604	2.118202	-2.118202
Li	3.177302	3.177303	-3.177303
Li	7.413705	5.295506	-1.059101
Li	9.531906	3.177303	-1.059101
Li	5.295504	5.295506	-3.177303
O	7.497907	3.262358	-0.974047
O	3.261504	5.210451	-3.262358
O	5.211302	3.262358	-3.262358
O	5.379705	5.380560	-1.144155
O	9.447704	5.210451	-0.974047
O	5.379706	7.328654	-3.092249
O	7.329503	7.328654	-1.144155
O	7.329503	5.380560	-3.092249
Ag	-4.236403	0.000000	-4.236404
Ag	-2.118201	-2.118202	-6.354607
Li	-5.295504	-1.059101	-7.413708
Li	-1.059101	1.059101	-5.295506
Li	1.059101	-1.059101	-5.295506
Li	-3.177302	1.059101	-7.413708
O	-0.974899	-0.974047	-5.210451
O	-5.211302	0.974047	-7.498762
O	-3.261504	-0.974047	-7.498762
O	-3.093100	1.144155	-5.380560
O	0.974899	0.974047	-5.210451
O	-3.093100	3.092249	-7.328654
O	-1.143303	3.092249	-5.380560
O	-1.143303	1.144155	-7.328654
Ag	0.000000	4.236404	-4.236404
Ag	2.118201	2.118202	-6.354607
Li	-1.059101	3.177303	-7.413708
Li	3.177302	5.295506	-5.295506
Li	5.295504	3.177303	-5.295506
Li	1.059101	5.295506	-7.413708
O	3.261504	3.262358	-5.210451
O	-0.974899	5.210451	-7.498762
O	0.974899	3.262358	-7.498762
O	1.143303	5.380560	-5.380560
O	5.211302	5.210451	-5.210451
O	1.143303	7.328654	-7.328654
O	3.093100	7.328654	-5.380560
O	3.093100	5.380560	-7.328654
Ag	4.236403	-4.236404	0.000000
Ag	6.354604	-6.354607	-2.118202
Li	3.177302	-5.295506	-3.177303
Li	7.413705	-3.177303	-1.059101
Li	9.531906	-5.295506	-1.059101
Li	5.295504	-3.177303	-3.177303
O	7.497907	-5.210451	-0.974047
O	3.261504	-3.262357	-3.262358
O	5.211302	-5.210451	-3.262358
O	5.379705	-3.092249	-1.144155
O	9.447704	-3.262357	-0.974047
O	5.379706	-1.144155	-3.092249
O	7.329503	-1.144155	-1.144155
O	7.329503	-3.092249	-3.092249
Ag	8.472806	0.000000	0.000000
Ag	10.591007	-2.118202	-2.118202
Li	7.413705	-1.059101	-3.177303
Li	11.650108	1.059101	-1.059101
Li	13.768309	-1.059101	-1.059101
Li	9.531906	1.059101	-3.177303
O	11.734310	-0.974047	-0.974047
O	7.497907	0.974047	-3.262358
O	9.447704	-0.974047	-3.262358
O	9.616108	1.144155	-1.144155
O	13.684107	0.974047	-0.974047
O	9.616108	3.092249	-3.092249
O	11.565906	3.092249	-1.144155
O	11.565906	1.144155	-3.092249
Ag	0.000000	-4.236404	-4.236404
Ag	2.118201	-6.354607	-6.354607
Li	-1.059101	-5.295506	-7.413708
Li	3.177302	-3.177303	-5.295506
Li	5.295504	-5.295506	-5.295506
Li	1.059101	-3.177303	-7.413708
O	3.261504	-5.210451	-5.210451
O	-0.974899	-3.262357	-7.498762
O	0.974899	-5.210451	-7.498762
O	1.143303	-3.092249	-5.380560
O	5.211302	-3.262357	-5.210451
O	1.143303	-1.144155	-7.328654
O	3.093100	-1.144155	-5.380560
O	3.093100	-3.092249	-7.328654
Ag	4.236403	0.000000	-4.236404
Ag	6.354604	-2.118202	-6.354607
Li	3.177302	-1.059101	-7.413708
Li	7.413705	1.059101	-5.295506
Li	9.531906	-1.059101	-5.295506
Li	5.295504	1.059101	-7.413708
O	7.497907	-0.974047	-5.210451
O	3.261504	0.974047	-7.498762
O	5.211302	-0.974047	-7.498762
O	5.379705	1.144155	-5.380560
O	9.447704	0.974047	-5.210451
O	5.379706	3.092249	-7.328654
O	7.329503	3.092249	-5.380560
O	7.329503	1.144155	-7.328654
