40

Ca	2.053326	2.053326	2.053326
O	2.053326	2.053326	0.000000
O	2.053326	0.000000	2.053326
O	0.000000	2.053326	2.053326
Ti	0.000000	0.000000	0.000000
Ca	2.053326	2.053326	6.159993
O	2.053326	2.053326	4.106667
O	2.053326	0.000000	6.159993
O	0.000000	2.053326	6.159993
Ti	0.000000	0.000000	4.106667
Ca	2.053326	6.159993	2.053326
O	2.053326	6.159993	0.000000
O	2.053326	4.106667	2.053326
O	0.000000	6.159993	2.053326
Ti	0.000000	4.106667	0.000000
Ca	2.053326	6.159993	6.159993
O	2.053326	6.159993	4.106667
O	2.053326	4.106667	6.159993
O	0.000000	6.159993	6.159993
Ti	0.000000	4.106667	4.106667
Ca	6.159993	2.053326	2.053326
O	6.159993	2.053326	0.000000
O	6.159993	0.000000	2.053326
O	4.106667	2.053326	2.053326
Ti	4.106667	0.000000	0.000000
Ca	6.159993	2.053326	6.159993
O	6.159993	2.053326	4.106667
O	6.159993	0.000000	6.159993
O	4.106667	2.053326	6.159993
Ti	4.106667	0.000000	4.106667
Ca	6.159993	6.159993	2.053326
O	6.159993	6.159993	0.000000
O	6.159993	4.106667	2.053326
O	4.106667	6.159993	2.053326
Ti	4.106667	4.106667	0.000000
Ca	6.159993	6.159993	6.159993
O	6.159993	6.159993	4.106667
O	6.159993	4.106667	6.159993
O	4.106667	6.159993	6.159993
Ti	4.106667	4.106667	4.106667
