112

Ir	0.000000	0.000000	0.000000
Ir	2.486095	-2.488143	-2.488143
K	-1.243048	-1.244071	-3.732214
K	6.215248	-1.244071	-1.244071
K	1.243048	1.244071	-3.732214
K	3.729153	1.244071	-1.244071
O	1.056098	1.059442	-1.059442
O	-1.429997	1.428700	-3.547575
O	3.542204	-1.428700	-1.428700
O	1.429997	-1.428700	-3.547575
O	1.056098	3.916843	-3.916843
O	3.916092	3.916843	-1.059442
O	3.916092	1.059442	-3.916843
O	6.402197	1.428700	-1.428700
Ir	4.972200	4.976281	0.000000
Ir	7.458295	2.488138	-2.488143
K	3.729152	3.732210	-3.732214
K	11.187448	3.732210	-1.244071
K	6.215247	6.220353	-3.732214
K	8.701353	6.220353	-1.244071
O	6.028298	6.035724	-1.059442
O	3.542203	6.404982	-3.547575
O	8.514403	3.547581	-1.428700
O	6.402197	3.547581	-3.547575
O	6.028298	8.893124	-3.916843
O	8.888292	8.893124	-1.059442
O	8.888292	6.035724	-3.916843
O	11.374397	6.404982	-1.428700
Ir	-4.972200	0.000000	-4.976281
Ir	-2.486104	-2.488143	-7.464424
K	-6.215247	-1.244071	-8.708495
K	1.243048	-1.244071	-6.220353
K	-3.729152	1.244071	-8.708495
K	-1.243047	1.244071	-6.220353
O	-3.916101	1.059442	-6.035724
O	-6.402197	1.428700	-8.523857
O	-1.429996	-1.428700	-6.404982
O	-3.542203	-1.428700	-8.523857
O	-3.916101	3.916843	-8.893124
O	-1.056107	3.916843	-6.035724
O	-1.056108	1.059442	-8.893124
O	1.429998	1.428700	-6.404982
Ir	0.000000	4.976281	-4.976281
Ir	2.486095	2.488138	-7.464424
K	-1.243048	3.732210	-8.708495
K	6.215248	3.732210	-6.220353
K	1.243048	6.220353	-8.708495
K	3.729153	6.220353	-6.220353
O	1.056098	6.035724	-6.035724
O	-1.429997	6.404982	-8.523857
O	3.542204	3.547581	-6.404982
O	1.429997	3.547581	-8.523857
O	1.056098	8.893124	-8.893124
O	3.916092	8.893124	-6.035724
O	3.916092	6.035724	-8.893124
O	6.402197	6.404982	-6.404982
Ir	4.972200	-4.976281	0.000000
Ir	7.458295	-7.464424	-2.488143
K	3.729152	-6.220353	-3.732214
K	11.187448	-6.220353	-1.244071
K	6.215247	-3.732210	-3.732214
K	8.701353	-3.732210	-1.244071
O	6.028298	-3.916839	-1.059442
O	3.542203	-3.547581	-3.547575
O	8.514403	-6.404982	-1.428700
O	6.402197	-6.404982	-3.547575
O	6.028298	-1.059438	-3.916843
O	8.888292	-1.059438	-1.059442
O	8.888292	-3.916839	-3.916843
O	11.374397	-3.547581	-1.428700
Ir	9.944400	0.000000	0.000000
Ir	12.430495	-2.488143	-2.488143
K	8.701352	-1.244071	-3.732214
K	16.159648	-1.244071	-1.244071
K	11.187447	1.244071	-3.732214
K	13.673552	1.244071	-1.244071
O	11.000498	1.059442	-1.059442
O	8.514403	1.428700	-3.547575
O	13.486603	-1.428700	-1.428700
O	11.374397	-1.428700	-3.547575
O	11.000498	3.916843	-3.916843
O	13.860492	3.916843	-1.059442
O	13.860492	1.059442	-3.916843
O	16.346597	1.428700	-1.428700
Ir	0.000000	-4.976281	-4.976281
Ir	2.486095	-7.464424	-7.464424
K	-1.243048	-6.220353	-8.708495
K	6.215248	-6.220353	-6.220353
K	1.243048	-3.732210	-8.708495
K	3.729153	-3.732210	-6.220353
O	1.056098	-3.916839	-6.035724
O	-1.429997	-3.547581	-8.523857
O	3.542204	-6.404982	-6.404982
O	1.429997	-6.404982	-8.523857
O	1.056098	-1.059438	-8.893124
O	3.916092	-1.059438	-6.035724
O	3.916092	-3.916839	-8.893124
O	6.402197	-3.547581	-6.404982
Ir	4.972200	0.000000	-4.976281
Ir	7.458295	-2.488143	-7.464424
K	3.729152	-1.244071	-8.708495
K	11.187448	-1.244071	-6.220353
K	6.215247	1.244071	-8.708495
K	8.701353	1.244071	-6.220353
O	6.028298	1.059442	-6.035724
O	3.542203	1.428700	-8.523857
O	8.514403	-1.428700	-6.404982
O	6.402197	-1.428700	-8.523857
O	6.028298	3.916843	-8.893124
O	8.888292	3.916843	-6.035724
O	8.888292	1.059442	-8.893124
O	11.374397	1.428700	-6.404982
