112

Ir	0.000000	0.000000	0.000000
Ir	2.528745	-2.531058	-2.531058
K	-1.264372	-1.265529	-3.796587
K	3.793117	1.265529	-1.265529
K	6.321862	-1.265529	-1.265529
K	1.264372	1.265529	-3.796587
O	3.588289	-1.467982	-1.467982
O	-1.469200	1.467982	-3.594133
O	1.469200	-1.467982	-3.594133
O	1.059545	1.063076	-1.063076
O	6.526689	1.467982	-1.467982
O	1.059545	3.999040	-3.999040
O	3.997945	3.999040	-1.063076
O	3.997945	1.063076	-3.999040
Ir	5.057489	5.062116	0.000000
Ir	7.586234	2.531058	-2.531058
K	3.793117	3.796587	-3.796587
K	8.850606	6.327644	-1.265529
K	11.379351	3.796587	-1.265529
K	6.321862	6.327644	-3.796587
O	8.645779	3.594133	-1.467982
O	3.588289	6.530098	-3.594133
O	6.526689	3.594133	-3.594133
O	6.117034	6.125191	-1.063076
O	11.584179	6.530098	-1.467982
O	6.117034	9.061156	-3.999040
O	9.055434	9.061156	-1.063076
O	9.055434	6.125191	-3.999040
Ir	-5.057489	0.000000	-5.062116
Ir	-2.528745	-2.531058	-7.593173
K	-6.321862	-1.265529	-8.858702
K	-1.264372	1.265529	-6.327644
K	1.264372	-1.265529	-6.327644
K	-3.793117	1.265529	-8.858702
O	-1.469200	-1.467982	-6.530098
O	-6.526689	1.467982	-8.656249
O	-3.588289	-1.467982	-8.656249
O	-3.997945	1.063076	-6.125191
O	1.469200	1.467982	-6.530098
O	-3.997945	3.999040	-9.061156
O	-1.059545	3.999040	-6.125191
O	-1.059545	1.063076	-9.061156
Ir	0.000000	5.062116	-5.062116
Ir	2.528745	2.531058	-7.593173
K	-1.264372	3.796587	-8.858702
K	3.793117	6.327644	-6.327644
K	6.321862	3.796587	-6.327644
K	1.264372	6.327644	-8.858702
O	3.588289	3.594133	-6.530098
O	-1.469200	6.530098	-8.656249
O	1.469200	3.594133	-8.656249
O	1.059545	6.125191	-6.125191
O	6.526689	6.530098	-6.530098
O	1.059545	9.061156	-9.061156
O	3.997945	9.061156	-6.125191
O	3.997945	6.125191	-9.061156
Ir	5.057489	-5.062116	0.000000
Ir	7.586234	-7.593173	-2.531058
K	3.793117	-6.327644	-3.796587
K	8.850606	-3.796587	-1.265529
K	11.379351	-6.327644	-1.265529
K	6.321862	-3.796587	-3.796587
O	8.645779	-6.530098	-1.467982
O	3.588289	-3.594133	-3.594133
O	6.526689	-6.530098	-3.594133
O	6.117034	-3.999040	-1.063076
O	11.584179	-3.594133	-1.467982
O	6.117034	-1.063076	-3.999040
O	9.055434	-1.063076	-1.063076
O	9.055434	-3.999040	-3.999040
Ir	10.114979	0.000000	0.000000
Ir	12.643723	-2.531058	-2.531058
K	8.850606	-1.265529	-3.796587
K	13.908096	1.265529	-1.265529
K	16.436840	-1.265529	-1.265529
K	11.379351	1.265529	-3.796587
O	13.703268	-1.467982	-1.467982
O	8.645779	1.467982	-3.594133
O	11.584179	-1.467982	-3.594133
O	11.174523	1.063076	-1.063076
O	16.641668	1.467982	-1.467982
O	11.174523	3.999040	-3.999040
O	14.112923	3.999040	-1.063076
O	14.112923	1.063076	-3.999040
Ir	0.000000	-5.062116	-5.062116
Ir	2.528745	-7.593173	-7.593173
K	-1.264372	-6.327644	-8.858702
K	3.793117	-3.796587	-6.327644
K	6.321862	-6.327644	-6.327644
K	1.264372	-3.796587	-8.858702
O	3.588289	-6.530098	-6.530098
O	-1.469200	-3.594133	-8.656249
O	1.469200	-6.530098	-8.656249
O	1.059545	-3.999040	-6.125191
O	6.526689	-3.594133	-6.530098
O	1.059545	-1.063076	-9.061156
O	3.997945	-1.063076	-6.125191
O	3.997945	-3.999040	-9.061156
Ir	5.057489	0.000000	-5.062116
Ir	7.586234	-2.531058	-7.593173
K	3.793117	-1.265529	-8.858702
K	8.850606	1.265529	-6.327644
K	11.379351	-1.265529	-6.327644
K	6.321862	1.265529	-8.858702
O	8.645779	-1.467982	-6.530098
O	3.588289	1.467982	-8.656249
O	6.526689	-1.467982	-8.656249
O	6.117034	1.063076	-6.125191
O	11.584179	1.467982	-6.530098
O	6.117034	3.999040	-9.061156
O	9.055434	3.999040	-6.125191
O	9.055434	1.063076	-9.061156
