40

La	0.000000	0.000000	0.000000
O	2.084297	2.084297	0.000000
O	2.084297	0.000000	2.084297
O	0.000000	2.084297	2.084297
Sn	2.084297	2.084297	2.084297
La	0.000000	0.000000	4.168603
O	2.084297	2.084297	4.168603
O	2.084297	0.000000	6.252900
O	0.000000	2.084297	6.252900
Sn	2.084297	2.084297	6.252900
La	0.000000	4.168603	0.000000
O	2.084297	6.252900	0.000000
O	2.084297	4.168603	2.084297
O	0.000000	6.252900	2.084297
Sn	2.084297	6.252900	2.084297
La	0.000000	4.168603	4.168603
O	2.084297	6.252900	4.168603
O	2.084297	4.168603	6.252900
O	0.000000	6.252900	6.252900
Sn	2.084297	6.252900	6.252900
La	4.168603	0.000000	0.000000
O	6.252900	2.084297	0.000000
O	6.252900	0.000000	2.084297
O	4.168603	2.084297	2.084297
Sn	6.252900	2.084297	2.084297
La	4.168603	0.000000	4.168603
O	6.252900	2.084297	4.168603
O	6.252900	0.000000	6.252900
O	4.168603	2.084297	6.252900
Sn	6.252900	2.084297	6.252900
La	4.168603	4.168603	0.000000
O	6.252900	6.252900	0.000000
O	6.252900	4.168603	2.084297
O	4.168603	6.252900	2.084297
Sn	6.252900	6.252900	2.084297
La	4.168603	4.168603	4.168603
O	6.252900	6.252900	4.168603
O	6.252900	4.168603	6.252900
O	4.168603	6.252900	6.252900
Sn	6.252900	6.252900	6.252900
