184

Al	-4.385925	-2.192963	0.000000
Al	-4.385925	0.000000	-2.192963
Al	-2.192963	-4.385925	0.000000
Al	-2.192963	0.000000	-4.385925
Al	0.000000	-4.385925	-2.192963
Al	0.000000	-2.192963	-4.385925
Ca	-1.341699	-1.341699	1.341699
Ca	-1.341699	1.341699	-1.341699
Ca	1.341699	-1.341699	-1.341699
Ca	-3.044226	-3.044226	-3.044226
O	0.000000	0.000000	0.000000
O	-3.572797	-1.216538	1.216538
O	-3.572797	1.216538	-1.216538
O	-1.216538	-3.572797	1.216538
O	-1.216538	1.216538	-3.572797
O	-5.199054	-1.216538	-1.216538
O	-3.169388	-3.169388	-0.813128
O	-3.169388	-0.813128	-3.169388
O	1.216538	-3.572797	-1.216538
O	1.216538	-1.216538	-3.572797
O	-0.813128	-3.169388	-3.169388
O	-1.216538	-5.199054	-1.216538
O	-1.216538	-1.216538	-5.199054
Al	0.000000	-6.578888	-4.385925
Al	0.000000	-4.385925	-6.578888
Al	2.192963	-8.771850	-4.385925
Al	2.192963	-4.385925	-8.771850
Al	4.385925	-8.771850	-6.578888
Al	4.385925	-6.578888	-8.771850
Ca	3.044226	-5.727624	-3.044226
Ca	3.044226	-3.044226	-5.727624
Ca	5.727624	-5.727624	-5.727624
Ca	1.341699	-7.430152	-7.430152
O	4.385925	-4.385925	-4.385925
O	0.813128	-5.602463	-3.169388
O	0.813128	-3.169388	-5.602463
O	3.169388	-7.958722	-3.169388
O	3.169388	-3.169388	-7.958722
O	-0.813128	-5.602463	-5.602463
O	1.216538	-7.555313	-5.199054
O	1.216538	-5.199054	-7.555313
O	5.602463	-7.958722	-5.602463
O	5.602463	-5.602463	-7.958722
O	3.572797	-7.555313	-7.555313
O	3.169388	-9.584979	-5.602463
O	3.169388	-5.602463	-9.584979
Al	-8.771850	2.192963	-4.385925
Al	-8.771850	4.385925	-6.578888
Al	-6.578888	0.000000	-4.385925
Al	-6.578888	4.385925	-8.771850
Al	-4.385925	0.000000	-6.578888
Al	-4.385925	2.192963	-8.771850
Ca	-5.727624	3.044226	-3.044226
Ca	-5.727624	5.727624	-5.727624
Ca	-3.044226	3.044226	-5.727624
Ca	-7.430152	1.341699	-7.430152
O	-4.385925	4.385925	-4.385925
O	-7.958722	3.169388	-3.169388
O	-7.958722	5.602463	-5.602463
O	-5.602463	0.813128	-3.169388
O	-5.602463	5.602463	-7.958722
O	-9.584979	3.169388	-5.602463
O	-7.555313	1.216538	-5.199054
O	-7.555313	3.572797	-7.555313
O	-3.169388	0.813128	-5.602463
O	-3.169388	3.169388	-7.958722
O	-5.199054	1.216538	-7.555313
O	-5.602463	-0.813128	-5.602463
O	-5.602463	3.169388	-9.584979
Al	-4.385925	-2.192963	-8.771850
Al	-4.385925	0.000000	-10.964813
Al	-2.192963	-4.385925	-8.771850
Al	-2.192963	0.000000	-13.157776
Al	0.000000	-4.385925	-10.964813
Al	0.000000	-2.192963	-13.157776
Ca	-1.341699	-1.341699	-7.430152
Ca	-1.341699	1.341699	-10.113549
Ca	1.341699	-1.341699	-10.113549
Ca	-3.044226	-3.044226	-11.816077
O	0.000000	0.000000	-8.771850
O	-3.572797	-1.216538	-7.555313
O	-3.572797	1.216538	-9.988388
O	-1.216538	-3.572797	-7.555313
O	-1.216538	1.216538	-12.344647
O	-5.199054	-1.216538	-9.988388
O	-3.169388	-3.169388	-9.584979
O	-3.169388	-0.813128	-11.941238
O	1.216538	-3.572797	-9.988388
O	1.216538	-1.216538	-12.344647
O	-0.813128	-3.169388	-11.941238
O	-1.216538	-5.199054	-9.988388
O	-1.216538	-1.216538	-13.970904
Al	-8.771850	-6.578888	4.385925
Al	-8.771850	-4.385925	2.192963
Al	-6.578888	-8.771850	4.385925
Al	-6.578888	-4.385925	0.000000
Al	-4.385925	-8.771850	2.192963
Al	-4.385925	-6.578888	0.000000
Ca	-5.727624	-5.727624	5.727624
Ca	-5.727624	-3.044226	3.044226
Ca	-3.044226	-5.727624	3.044226
Ca	-7.430152	-7.430152	1.341699
O	-4.385925	-4.385925	4.385925
O	-7.958722	-5.602463	5.602463
O	-7.958722	-3.169388	3.169388
O	-5.602463	-7.958722	5.602463
O	-5.602463	-3.169388	0.813128
O	-9.584979	-5.602463	3.169388
O	-7.555313	-7.555313	3.572797
O	-7.555313	-5.199054	1.216538
O	-3.169388	-7.958722	3.169388
O	-3.169388	-5.602463	0.813128
O	-5.199054	-7.555313	1.216538
O	-5.602463	-9.584979	3.169388
O	-5.602463	-5.602463	-0.813128
Al	-4.385925	-10.964813	0.000000
Al	-4.385925	-8.771850	-2.192963
Al	-2.192963	-13.157776	0.000000
Al	-2.192963	-8.771850	-4.385925
Al	0.000000	-13.157776	-2.192963
Al	0.000000	-10.964813	-4.385925
Ca	-1.341699	-10.113549	1.341699
Ca	-1.341699	-7.430152	-1.341699
Ca	1.341699	-10.113549	-1.341699
Ca	-3.044226	-11.816077	-3.044226
O	0.000000	-8.771850	0.000000
O	-3.572797	-9.988388	1.216538
O	-3.572797	-7.555313	-1.216538
O	-1.216538	-12.344647	1.216538
O	-1.216538	-7.555313	-3.572797
O	-5.199054	-9.988388	-1.216538
O	-3.169388	-11.941238	-0.813128
O	-3.169388	-9.584979	-3.169388
O	1.216538	-12.344647	-1.216538
O	1.216538	-9.988388	-3.572797
O	-0.813128	-11.941238	-3.169388
O	-1.216538	-13.970904	-1.216538
O	-1.216538	-9.988388	-5.199054
Al	-13.157776	-2.192963	0.000000
Al	-13.157776	0.000000	-2.192963
Al	-10.964813	-4.385925	0.000000
Al	-10.964813	0.000000	-4.385925
Al	-8.771850	-4.385925	-2.192963
Al	-8.771850	-2.192963	-4.385925
Ca	-10.113549	-1.341699	1.341699
Ca	-10.113549	1.341699	-1.341699
Ca	-7.430152	-1.341699	-1.341699
Ca	-11.816077	-3.044226	-3.044226
O	-8.771850	0.000000	0.000000
O	-12.344647	-1.216538	1.216538
O	-12.344647	1.216538	-1.216538
O	-9.988388	-3.572797	1.216538
O	-9.988388	1.216538	-3.572797
O	-13.970904	-1.216538	-1.216538
O	-11.941238	-3.169388	-0.813128
O	-11.941238	-0.813128	-3.169388
O	-7.555313	-3.572797	-1.216538
O	-7.555313	-1.216538	-3.572797
O	-9.584979	-3.169388	-3.169388
O	-9.988388	-5.199054	-1.216538
O	-9.988388	-1.216538	-5.199054
Al	-8.771850	-6.578888	-4.385925
Al	-8.771850	-4.385925	-6.578888
Al	-6.578888	-8.771850	-4.385925
Al	-6.578888	-4.385925	-8.771850
Al	-4.385925	-8.771850	-6.578888
Al	-4.385925	-6.578888	-8.771850
Ca	-5.727624	-5.727624	-3.044226
Ca	-5.727624	-3.044226	-5.727624
Ca	-3.044226	-5.727624	-5.727624
Ca	-7.430152	-7.430152	-7.430152
O	-4.385925	-4.385925	-4.385925
O	-7.958722	-5.602463	-3.169388
O	-7.958722	-3.169388	-5.602463
O	-5.602463	-7.958722	-3.169388
O	-5.602463	-3.169388	-7.958722
O	-9.584979	-5.602463	-5.602463
O	-7.555313	-7.555313	-5.199054
O	-7.555313	-5.199054	-7.555313
O	-3.169388	-7.958722	-5.602463
O	-3.169388	-5.602463	-7.958722
O	-5.199054	-7.555313	-7.555313
O	-5.602463	-9.584979	-5.602463
O	-5.602463	-5.602463	-9.584979
