40

O	1.969730	1.969730	0.000000
O	0.000000	1.969730	1.969730
O	1.969730	0.000000	1.969730
Pt	1.969730	1.969730	1.969730
Si	0.000000	0.000000	0.000000
O	1.969730	1.969730	3.939473
O	0.000000	1.969730	5.909203
O	1.969730	0.000000	5.909203
Pt	1.969730	1.969730	5.909203
Si	0.000000	0.000000	3.939473
O	1.969730	5.909203	0.000000
O	0.000000	5.909203	1.969730
O	1.969730	3.939473	1.969730
Pt	1.969730	5.909203	1.969730
Si	0.000000	3.939473	0.000000
O	1.969730	5.909203	3.939473
O	0.000000	5.909203	5.909203
O	1.969730	3.939473	5.909203
Pt	1.969730	5.909203	5.909203
Si	0.000000	3.939473	3.939473
O	5.909203	1.969730	0.000000
O	3.939473	1.969730	1.969730
O	5.909203	0.000000	1.969730
Pt	5.909203	1.969730	1.969730
Si	3.939473	0.000000	0.000000
O	5.909203	1.969730	3.939473
O	3.939473	1.969730	5.909203
O	5.909203	0.000000	5.909203
Pt	5.909203	1.969730	5.909203
Si	3.939473	0.000000	3.939473
O	5.909203	5.909203	0.000000
O	3.939473	5.909203	1.969730
O	5.909203	3.939473	1.969730
Pt	5.909203	5.909203	1.969730
Si	3.939473	3.939473	0.000000
O	5.909203	5.909203	3.939473
O	3.939473	5.909203	5.909203
O	5.909203	3.939473	5.909203
Pt	5.909203	5.909203	5.909203
Si	3.939473	3.939473	3.939473
