40

O	0.000000	1.810097	1.810097
O	1.810097	0.000000	1.810097
O	1.810097	1.810097	0.000000
Pt	0.000000	0.000000	0.000000
Si	1.810097	1.810097	1.810097
O	0.000000	1.810097	5.430291
O	1.810097	0.000000	5.430291
O	1.810097	1.810097	3.620194
Pt	0.000000	0.000000	3.620194
Si	1.810097	1.810097	5.430291
O	0.000000	5.430291	1.810097
O	1.810097	3.620194	1.810097
O	1.810097	5.430291	0.000000
Pt	0.000000	3.620194	0.000000
Si	1.810097	5.430291	1.810097
O	0.000000	5.430291	5.430291
O	1.810097	3.620194	5.430291
O	1.810097	5.430291	3.620194
Pt	0.000000	3.620194	3.620194
Si	1.810097	5.430291	5.430291
O	3.620194	1.810097	1.810097
O	5.430291	0.000000	1.810097
O	5.430291	1.810097	0.000000
Pt	3.620194	0.000000	0.000000
Si	5.430291	1.810097	1.810097
O	3.620194	1.810097	5.430291
O	5.430291	0.000000	5.430291
O	5.430291	1.810097	3.620194
Pt	3.620194	0.000000	3.620194
Si	5.430291	1.810097	5.430291
O	3.620194	5.430291	1.810097
O	5.430291	3.620194	1.810097
O	5.430291	5.430291	0.000000
Pt	3.620194	3.620194	0.000000
Si	5.430291	5.430291	1.810097
O	3.620194	5.430291	5.430291
O	5.430291	3.620194	5.430291
O	5.430291	5.430291	3.620194
Pt	3.620194	3.620194	3.620194
Si	5.430291	5.430291	5.430291
