40

Ni	2.025765	2.025765	2.025765
O	0.000000	2.025765	2.025765
O	2.025765	0.000000	2.025765
O	2.025765	2.025765	0.000000
Rb	0.000000	0.000000	0.000000
Ni	2.025765	2.025765	6.077295
O	0.000000	2.025765	6.077295
O	2.025765	0.000000	6.077295
O	2.025765	2.025765	4.051530
Rb	0.000000	0.000000	4.051530
Ni	2.025765	6.077295	2.025765
O	0.000000	6.077295	2.025765
O	2.025765	4.051530	2.025765
O	2.025765	6.077295	0.000000
Rb	0.000000	4.051530	0.000000
Ni	2.025765	6.077295	6.077295
O	0.000000	6.077295	6.077295
O	2.025765	4.051530	6.077295
O	2.025765	6.077295	4.051530
Rb	0.000000	4.051530	4.051530
Ni	6.077295	2.025765	2.025765
O	4.051530	2.025765	2.025765
O	6.077295	0.000000	2.025765
O	6.077295	2.025765	0.000000
Rb	4.051530	0.000000	0.000000
Ni	6.077295	2.025765	6.077295
O	4.051530	2.025765	6.077295
O	6.077295	0.000000	6.077295
O	6.077295	2.025765	4.051530
Rb	4.051530	0.000000	4.051530
Ni	6.077295	6.077295	2.025765
O	4.051530	6.077295	2.025765
O	6.077295	4.051530	2.025765
O	6.077295	6.077295	0.000000
Rb	4.051530	4.051530	0.000000
Ni	6.077295	6.077295	6.077295
O	4.051530	6.077295	6.077295
O	6.077295	4.051530	6.077295
O	6.077295	6.077295	4.051530
Rb	4.051530	4.051530	4.051530
