40

Ni	0.000000	0.000000	0.000000
O	0.000000	2.336033	2.336033
O	2.336033	0.000000	2.336033
O	2.336033	2.336033	0.000000
Rb	2.336033	2.336033	2.336033
Ni	0.000000	0.000000	4.672066
O	0.000000	2.336033	7.008099
O	2.336033	0.000000	7.008099
O	2.336033	2.336033	4.672066
Rb	2.336033	2.336033	7.008099
Ni	0.000000	4.672066	0.000000
O	0.000000	7.008099	2.336033
O	2.336033	4.672066	2.336033
O	2.336033	7.008099	0.000000
Rb	2.336033	7.008099	2.336033
Ni	0.000000	4.672066	4.672066
O	0.000000	7.008099	7.008099
O	2.336033	4.672066	7.008099
O	2.336033	7.008099	4.672066
Rb	2.336033	7.008099	7.008099
Ni	4.672066	0.000000	0.000000
O	4.672066	2.336033	2.336033
O	7.008099	0.000000	2.336033
O	7.008099	2.336033	0.000000
Rb	7.008099	2.336033	2.336033
Ni	4.672066	0.000000	4.672066
O	4.672066	2.336033	7.008099
O	7.008099	0.000000	7.008099
O	7.008099	2.336033	4.672066
Rb	7.008099	2.336033	7.008099
Ni	4.672066	4.672066	0.000000
O	4.672066	7.008099	2.336033
O	7.008099	4.672066	2.336033
O	7.008099	7.008099	0.000000
Rb	7.008099	7.008099	2.336033
Ni	4.672066	4.672066	4.672066
O	4.672066	7.008099	7.008099
O	7.008099	4.672066	7.008099
O	7.008099	7.008099	4.672066
Rb	7.008099	7.008099	7.008099
