40

Ni	2.029788	2.029788	2.029788
O	2.029788	2.029788	0.000000
O	2.029788	0.000000	2.029788
O	0.000000	2.029788	2.029788
Rb	0.000000	0.000000	0.000000
Ni	2.029788	2.029788	6.089364
O	2.029788	2.029788	4.059576
O	2.029788	0.000000	6.089364
O	0.000000	2.029788	6.089364
Rb	0.000000	0.000000	4.059576
Ni	2.029788	6.089364	2.029788
O	2.029788	6.089364	0.000000
O	2.029788	4.059576	2.029788
O	0.000000	6.089364	2.029788
Rb	0.000000	4.059576	0.000000
Ni	2.029788	6.089364	6.089364
O	2.029788	6.089364	4.059576
O	2.029788	4.059576	6.089364
O	0.000000	6.089364	6.089364
Rb	0.000000	4.059576	4.059576
Ni	6.089364	2.029788	2.029788
O	6.089364	2.029788	0.000000
O	6.089364	0.000000	2.029788
O	4.059576	2.029788	2.029788
Rb	4.059576	0.000000	0.000000
Ni	6.089364	2.029788	6.089364
O	6.089364	2.029788	4.059576
O	6.089364	0.000000	6.089364
O	4.059576	2.029788	6.089364
Rb	4.059576	0.000000	4.059576
Ni	6.089364	6.089364	2.029788
O	6.089364	6.089364	0.000000
O	6.089364	4.059576	2.029788
O	4.059576	6.089364	2.029788
Rb	4.059576	4.059576	0.000000
Ni	6.089364	6.089364	6.089364
O	6.089364	6.089364	4.059576
O	6.089364	4.059576	6.089364
O	4.059576	6.089364	6.089364
Rb	4.059576	4.059576	4.059576
