96

O	2.308220	3.389839	0.540809
O	3.389839	0.540809	2.308220
O	5.157250	5.157250	5.157250
O	0.540809	2.308220	3.389839
S	5.236688	2.387658	0.461372
S	0.461372	5.236688	2.387658
S	2.387658	0.461372	5.236688
S	3.310401	3.310401	3.310401
Hf	3.872903	4.674187	1.023873
Hf	4.674187	1.023873	3.872903
Hf	1.023873	3.872903	4.674187
Hf	1.825157	1.825157	1.825157
O	2.308220	3.389839	6.238869
O	3.389839	0.540809	8.006280
O	5.157250	5.157250	10.855310
O	0.540809	2.308220	9.087899
S	5.236688	2.387658	6.159431
S	0.461372	5.236688	8.085718
S	2.387658	0.461372	10.934747
S	3.310401	3.310401	9.008461
Hf	3.872903	4.674187	6.721933
Hf	4.674187	1.023873	9.570962
Hf	1.023873	3.872903	10.372246
Hf	1.825157	1.825157	7.523216
O	2.308220	9.087899	0.540809
O	3.389839	6.238869	2.308220
O	5.157250	10.855310	5.157250
O	0.540809	8.006280	3.389839
S	5.236688	8.085718	0.461372
S	0.461372	10.934747	2.387658
S	2.387658	6.159431	5.236688
S	3.310401	9.008461	3.310401
Hf	3.872903	10.372246	1.023873
Hf	4.674187	6.721933	3.872903
Hf	1.023873	9.570962	4.674187
Hf	1.825157	7.523216	1.825157
O	2.308220	9.087899	6.238869
O	3.389839	6.238869	8.006280
O	5.157250	10.855310	10.855310
O	0.540809	8.006280	9.087899
S	5.236688	8.085718	6.159431
S	0.461372	10.934747	8.085718
S	2.387658	6.159431	10.934747
S	3.310401	9.008461	9.008461
Hf	3.872903	10.372246	6.721933
Hf	4.674187	6.721933	9.570962
Hf	1.023873	9.570962	10.372246
Hf	1.825157	7.523216	7.523216
O	8.006280	3.389839	0.540809
O	9.087899	0.540809	2.308220
O	10.855310	5.157250	5.157250
O	6.238869	2.308220	3.389839
S	10.934747	2.387658	0.461372
S	6.159431	5.236688	2.387658
S	8.085718	0.461372	5.236688
S	9.008461	3.310401	3.310401
Hf	9.570962	4.674187	1.023873
Hf	10.372246	1.023873	3.872903
Hf	6.721933	3.872903	4.674187
Hf	7.523216	1.825157	1.825157
O	8.006280	3.389839	6.238869
O	9.087899	0.540809	8.006280
O	10.855310	5.157250	10.855310
O	6.238869	2.308220	9.087899
S	10.934747	2.387658	6.159431
S	6.159431	5.236688	8.085718
S	8.085718	0.461372	10.934747
S	9.008461	3.310401	9.008461
Hf	9.570962	4.674187	6.721933
Hf	10.372246	1.023873	9.570962
Hf	6.721933	3.872903	10.372246
Hf	7.523216	1.825157	7.523216
O	8.006280	9.087899	0.540809
O	9.087899	6.238869	2.308220
O	10.855310	10.855310	5.157250
O	6.238869	8.006280	3.389839
S	10.934747	8.085718	0.461372
S	6.159431	10.934747	2.387658
S	8.085718	6.159431	5.236688
S	9.008461	9.008461	3.310401
Hf	9.570962	10.372246	1.023873
Hf	10.372246	6.721933	3.872903
Hf	6.721933	9.570962	4.674187
Hf	7.523216	7.523216	1.825157
O	8.006280	9.087899	6.238869
O	9.087899	6.238869	8.006280
O	10.855310	10.855310	10.855310
O	6.238869	8.006280	9.087899
S	10.934747	8.085718	6.159431
S	6.159431	10.934747	8.085718
S	8.085718	6.159431	10.934747
S	9.008461	9.008461	9.008461
Hf	9.570962	10.372246	6.721933
Hf	10.372246	6.721933	9.570962
Hf	6.721933	9.570962	10.372246
Hf	7.523216	7.523216	7.523216
