40

Ac	0.000000	0.000000	0.000000
Dy_3	2.164100	2.164100	2.164100
O	2.164100	0.000000	2.164100
O	0.000000	2.164100	2.164100
O	2.164100	2.164100	0.000000
Ac	0.000000	0.000000	4.328186
Dy_3	2.164100	2.164100	6.492286
O	2.164100	0.000000	6.492286
O	0.000000	2.164100	6.492286
O	2.164100	2.164100	4.328186
Ac	0.000000	4.328186	0.000000
Dy_3	2.164100	6.492286	2.164100
O	2.164100	4.328186	2.164100
O	0.000000	6.492286	2.164100
O	2.164100	6.492286	0.000000
Ac	0.000000	4.328186	4.328186
Dy_3	2.164100	6.492286	6.492286
O	2.164100	4.328186	6.492286
O	0.000000	6.492286	6.492286
O	2.164100	6.492286	4.328186
Ac	4.328186	0.000000	0.000000
Dy_3	6.492286	2.164100	2.164100
O	6.492286	0.000000	2.164100
O	4.328186	2.164100	2.164100
O	6.492286	2.164100	0.000000
Ac	4.328186	0.000000	4.328186
Dy_3	6.492286	2.164100	6.492286
O	6.492286	0.000000	6.492286
O	4.328186	2.164100	6.492286
O	6.492286	2.164100	4.328186
Ac	4.328186	4.328186	0.000000
Dy_3	6.492286	6.492286	2.164100
O	6.492286	4.328186	2.164100
O	4.328186	6.492286	2.164100
O	6.492286	6.492286	0.000000
Ac	4.328186	4.328186	4.328186
Dy_3	6.492286	6.492286	6.492286
O	6.492286	4.328186	6.492286
O	4.328186	6.492286	6.492286
O	6.492286	6.492286	4.328186
