40

Ac	2.318650	2.318650	2.318650
Dy_3	0.000000	0.000000	0.000000
O	2.318650	0.000000	2.318650
O	0.000000	2.318650	2.318650
O	2.318650	2.318650	0.000000
Ac	2.318650	2.318650	6.955931
Dy_3	0.000000	0.000000	4.637281
O	2.318650	0.000000	6.955931
O	0.000000	2.318650	6.955931
O	2.318650	2.318650	4.637281
Ac	2.318650	6.955931	2.318650
Dy_3	0.000000	4.637281	0.000000
O	2.318650	4.637281	2.318650
O	0.000000	6.955931	2.318650
O	2.318650	6.955931	0.000000
Ac	2.318650	6.955931	6.955931
Dy_3	0.000000	4.637281	4.637281
O	2.318650	4.637281	6.955931
O	0.000000	6.955931	6.955931
O	2.318650	6.955931	4.637281
Ac	6.955931	2.318650	2.318650
Dy_3	4.637281	0.000000	0.000000
O	6.955931	0.000000	2.318650
O	4.637281	2.318650	2.318650
O	6.955931	2.318650	0.000000
Ac	6.955931	2.318650	6.955931
Dy_3	4.637281	0.000000	4.637281
O	6.955931	0.000000	6.955931
O	4.637281	2.318650	6.955931
O	6.955931	2.318650	4.637281
Ac	6.955931	6.955931	2.318650
Dy_3	4.637281	4.637281	0.000000
O	6.955931	4.637281	2.318650
O	4.637281	6.955931	2.318650
O	6.955931	6.955931	0.000000
Ac	6.955931	6.955931	6.955931
Dy_3	4.637281	4.637281	4.637281
O	6.955931	4.637281	6.955931
O	4.637281	6.955931	6.955931
O	6.955931	6.955931	4.637281
