40

Np	0.000000	0.000000	0.000000
O	1.976340	1.976340	0.000000
O	0.000000	1.976340	1.976340
O	1.976340	0.000000	1.976340
Ru	1.976340	1.976340	1.976340
Np	0.000000	0.000000	3.952686
O	1.976340	1.976340	3.952686
O	0.000000	1.976340	5.929026
O	1.976340	0.000000	5.929026
Ru	1.976340	1.976340	5.929026
Np	0.000000	3.952686	0.000000
O	1.976340	5.929026	0.000000
O	0.000000	5.929026	1.976340
O	1.976340	3.952686	1.976340
Ru	1.976340	5.929026	1.976340
Np	0.000000	3.952686	3.952686
O	1.976340	5.929026	3.952686
O	0.000000	5.929026	5.929026
O	1.976340	3.952686	5.929026
Ru	1.976340	5.929026	5.929026
Np	3.952686	0.000000	0.000000
O	5.929026	1.976340	0.000000
O	3.952686	1.976340	1.976340
O	5.929026	0.000000	1.976340
Ru	5.929026	1.976340	1.976340
Np	3.952686	0.000000	3.952686
O	5.929026	1.976340	3.952686
O	3.952686	1.976340	5.929026
O	5.929026	0.000000	5.929026
Ru	5.929026	1.976340	5.929026
Np	3.952686	3.952686	0.000000
O	5.929026	5.929026	0.000000
O	3.952686	5.929026	1.976340
O	5.929026	3.952686	1.976340
Ru	5.929026	5.929026	1.976340
Np	3.952686	3.952686	3.952686
O	5.929026	5.929026	3.952686
O	3.952686	5.929026	5.929026
O	5.929026	3.952686	5.929026
Ru	5.929026	5.929026	5.929026
