40

Co	1.976405	1.976405	1.976405
Cs	0.000000	0.000000	0.000000
O	0.000000	1.976405	1.976405
O	1.976405	0.000000	1.976405
O	1.976405	1.976405	0.000000
Co	1.976405	1.976405	5.929214
Cs	0.000000	0.000000	3.952810
O	0.000000	1.976405	5.929214
O	1.976405	0.000000	5.929214
O	1.976405	1.976405	3.952810
Co	1.976405	5.929214	1.976405
Cs	0.000000	3.952810	0.000000
O	0.000000	5.929214	1.976405
O	1.976405	3.952810	1.976405
O	1.976405	5.929214	0.000000
Co	1.976405	5.929214	5.929214
Cs	0.000000	3.952810	3.952810
O	0.000000	5.929214	5.929214
O	1.976405	3.952810	5.929214
O	1.976405	5.929214	3.952810
Co	5.929214	1.976405	1.976405
Cs	3.952810	0.000000	0.000000
O	3.952810	1.976405	1.976405
O	5.929214	0.000000	1.976405
O	5.929214	1.976405	0.000000
Co	5.929214	1.976405	5.929214
Cs	3.952810	0.000000	3.952810
O	3.952810	1.976405	5.929214
O	5.929214	0.000000	5.929214
O	5.929214	1.976405	3.952810
Co	5.929214	5.929214	1.976405
Cs	3.952810	3.952810	0.000000
O	3.952810	5.929214	1.976405
O	5.929214	3.952810	1.976405
O	5.929214	5.929214	0.000000
Co	5.929214	5.929214	5.929214
Cs	3.952810	3.952810	3.952810
O	3.952810	5.929214	5.929214
O	5.929214	3.952810	5.929214
O	5.929214	5.929214	3.952810
