40

Be	0.000000	0.000000	0.000000
Cr	1.836493	1.836493	1.836493
O	0.000000	1.836493	1.836493
O	1.836493	0.000000	1.836493
O	1.836493	1.836493	0.000000
Be	0.000000	0.000000	3.672986
Cr	1.836493	1.836493	5.509478
O	0.000000	1.836493	5.509478
O	1.836493	0.000000	5.509478
O	1.836493	1.836493	3.672986
Be	0.000000	3.672986	0.000000
Cr	1.836493	5.509478	1.836493
O	0.000000	5.509478	1.836493
O	1.836493	3.672986	1.836493
O	1.836493	5.509478	0.000000
Be	0.000000	3.672986	3.672986
Cr	1.836493	5.509478	5.509478
O	0.000000	5.509478	5.509478
O	1.836493	3.672986	5.509478
O	1.836493	5.509478	3.672986
Be	3.672986	0.000000	0.000000
Cr	5.509478	1.836493	1.836493
O	3.672986	1.836493	1.836493
O	5.509478	0.000000	1.836493
O	5.509478	1.836493	0.000000
Be	3.672986	0.000000	3.672986
Cr	5.509478	1.836493	5.509478
O	3.672986	1.836493	5.509478
O	5.509478	0.000000	5.509478
O	5.509478	1.836493	3.672986
Be	3.672986	3.672986	0.000000
Cr	5.509478	5.509478	1.836493
O	3.672986	5.509478	1.836493
O	5.509478	3.672986	1.836493
O	5.509478	5.509478	0.000000
Be	3.672986	3.672986	3.672986
Cr	5.509478	5.509478	5.509478
O	3.672986	5.509478	5.509478
O	5.509478	3.672986	5.509478
O	5.509478	5.509478	3.672986
