112

Ga	0.000000	0.000000	0.000000
Ga	2.315065	-2.313137	-2.313137
Hg	-1.157533	-1.156568	-3.469705
Hg	3.472598	1.156568	-1.156568
Hg	5.787663	-1.156568	-1.156568
Hg	1.157533	1.156568	-3.469705
O	3.412678	-1.215344	-1.215344
O	-1.217452	1.215344	-3.410929
O	1.217452	-1.215344	-3.410929
O	1.097613	1.097793	-1.097793
O	5.847583	1.215344	-1.215344
O	1.097613	3.528481	-3.528481
O	3.532517	3.528481	-1.097793
O	3.532517	1.097793	-3.528481
Ga	4.630131	4.626273	0.000000
Ga	6.945196	2.313137	-2.313137
Hg	3.472598	3.469705	-3.469705
Hg	8.102728	5.782842	-1.156568
Hg	10.417794	3.469705	-1.156568
Hg	5.787663	5.782842	-3.469705
O	8.042809	3.410929	-1.215344
O	3.412678	5.841617	-3.410929
O	5.847583	3.410929	-3.410929
O	5.727744	5.724066	-1.097793
O	10.477713	5.841617	-1.215344
O	5.727744	8.154754	-3.528481
O	8.162648	8.154754	-1.097793
O	8.162648	5.724066	-3.528481
Ga	-4.630131	0.000000	-4.626273
Ga	-2.315065	-2.313137	-6.939410
Hg	-5.787663	-1.156568	-8.095978
Hg	-1.157533	1.156568	-5.782842
Hg	1.157533	-1.156568	-5.782842
Hg	-3.472598	1.156568	-8.095978
O	-1.217452	-1.215344	-5.841617
O	-5.847583	1.215344	-8.037202
O	-3.412678	-1.215344	-8.037202
O	-3.532517	1.097793	-5.724066
O	1.217452	1.215344	-5.841617
O	-3.532517	3.528481	-8.154754
O	-1.097613	3.528481	-5.724066
O	-1.097613	1.097793	-8.154754
Ga	0.000000	4.626273	-4.626273
Ga	2.315065	2.313137	-6.939410
Hg	-1.157533	3.469705	-8.095978
Hg	3.472598	5.782842	-5.782842
Hg	5.787663	3.469705	-5.782842
Hg	1.157533	5.782842	-8.095978
O	3.412678	3.410929	-5.841617
O	-1.217452	5.841617	-8.037202
O	1.217452	3.410929	-8.037202
O	1.097613	5.724066	-5.724066
O	5.847583	5.841617	-5.841617
O	1.097613	8.154754	-8.154754
O	3.532517	8.154754	-5.724066
O	3.532517	5.724066	-8.154754
Ga	4.630131	-4.626273	0.000000
Ga	6.945196	-6.939410	-2.313137
Hg	3.472598	-5.782842	-3.469705
Hg	8.102728	-3.469705	-1.156568
Hg	10.417794	-5.782842	-1.156568
Hg	5.787663	-3.469705	-3.469705
O	8.042809	-5.841617	-1.215344
O	3.412678	-3.410929	-3.410929
O	5.847583	-5.841617	-3.410929
O	5.727744	-3.528481	-1.097793
O	10.477713	-3.410929	-1.215344
O	5.727744	-1.097793	-3.528481
O	8.162648	-1.097793	-1.097793
O	8.162648	-3.528481	-3.528481
Ga	9.260261	0.000000	0.000000
Ga	11.575326	-2.313137	-2.313137
Hg	8.102728	-1.156568	-3.469705
Hg	12.732859	1.156568	-1.156568
Hg	15.047924	-1.156568	-1.156568
Hg	10.417794	1.156568	-3.469705
O	12.672940	-1.215344	-1.215344
O	8.042809	1.215344	-3.410929
O	10.477713	-1.215344	-3.410929
O	10.357874	1.097793	-1.097793
O	15.107844	1.215344	-1.215344
O	10.357874	3.528481	-3.528481
O	12.792779	3.528481	-1.097793
O	12.792779	1.097793	-3.528481
Ga	0.000000	-4.626273	-4.626273
Ga	2.315065	-6.939410	-6.939410
Hg	-1.157533	-5.782842	-8.095978
Hg	3.472598	-3.469705	-5.782842
Hg	5.787663	-5.782842	-5.782842
Hg	1.157533	-3.469705	-8.095978
O	3.412678	-5.841617	-5.841617
O	-1.217452	-3.410929	-8.037202
O	1.217452	-5.841617	-8.037202
O	1.097613	-3.528481	-5.724066
O	5.847583	-3.410929	-5.841617
O	1.097613	-1.097793	-8.154754
O	3.532517	-1.097793	-5.724066
O	3.532517	-3.528481	-8.154754
Ga	4.630131	0.000000	-4.626273
Ga	6.945196	-2.313137	-6.939410
Hg	3.472598	-1.156568	-8.095978
Hg	8.102728	1.156568	-5.782842
Hg	10.417794	-1.156568	-5.782842
Hg	5.787663	1.156568	-8.095978
O	8.042809	-1.215344	-5.841617
O	3.412678	1.215344	-8.037202
O	5.847583	-1.215344	-8.037202
O	5.727744	1.097793	-5.724066
O	10.477713	1.215344	-5.841617
O	5.727744	3.528481	-8.154754
O	8.162648	3.528481	-5.724066
O	8.162648	1.097793	-8.154754
