40

Co	0.000000	0.000000	0.000000
O	2.158688	2.158688	0.000000
O	2.158688	0.000000	2.158688
O	0.000000	2.158688	2.158688
U	2.158688	2.158688	2.158688
Co	0.000000	0.000000	4.317377
O	2.158688	2.158688	4.317377
O	2.158688	0.000000	6.476065
O	0.000000	2.158688	6.476065
U	2.158688	2.158688	6.476065
Co	0.000000	4.317377	0.000000
O	2.158688	6.476065	0.000000
O	2.158688	4.317377	2.158688
O	0.000000	6.476065	2.158688
U	2.158688	6.476065	2.158688
Co	0.000000	4.317377	4.317377
O	2.158688	6.476065	4.317377
O	2.158688	4.317377	6.476065
O	0.000000	6.476065	6.476065
U	2.158688	6.476065	6.476065
Co	4.317377	0.000000	0.000000
O	6.476065	2.158688	0.000000
O	6.476065	0.000000	2.158688
O	4.317377	2.158688	2.158688
U	6.476065	2.158688	2.158688
Co	4.317377	0.000000	4.317377
O	6.476065	2.158688	4.317377
O	6.476065	0.000000	6.476065
O	4.317377	2.158688	6.476065
U	6.476065	2.158688	6.476065
Co	4.317377	4.317377	0.000000
O	6.476065	6.476065	0.000000
O	6.476065	4.317377	2.158688
O	4.317377	6.476065	2.158688
U	6.476065	6.476065	2.158688
Co	4.317377	4.317377	4.317377
O	6.476065	6.476065	4.317377
O	6.476065	4.317377	6.476065
O	4.317377	6.476065	6.476065
U	6.476065	6.476065	6.476065
