40

Hg	0.000000	0.000000	0.000000
O	2.243414	2.243414	0.000000
O	2.243414	0.000000	2.243414
O	0.000000	2.243414	2.243414
Sr	2.243414	2.243414	2.243414
Hg	0.000000	0.000000	4.486837
O	2.243414	2.243414	4.486837
O	2.243414	0.000000	6.730251
O	0.000000	2.243414	6.730251
Sr	2.243414	2.243414	6.730251
Hg	0.000000	4.486837	0.000000
O	2.243414	6.730251	0.000000
O	2.243414	4.486837	2.243414
O	0.000000	6.730251	2.243414
Sr	2.243414	6.730251	2.243414
Hg	0.000000	4.486837	4.486837
O	2.243414	6.730251	4.486837
O	2.243414	4.486837	6.730251
O	0.000000	6.730251	6.730251
Sr	2.243414	6.730251	6.730251
Hg	4.486837	0.000000	0.000000
O	6.730251	2.243414	0.000000
O	6.730251	0.000000	2.243414
O	4.486837	2.243414	2.243414
Sr	6.730251	2.243414	2.243414
Hg	4.486837	0.000000	4.486837
O	6.730251	2.243414	4.486837
O	6.730251	0.000000	6.730251
O	4.486837	2.243414	6.730251
Sr	6.730251	2.243414	6.730251
Hg	4.486837	4.486837	0.000000
O	6.730251	6.730251	0.000000
O	6.730251	4.486837	2.243414
O	4.486837	6.730251	2.243414
Sr	6.730251	6.730251	2.243414
Hg	4.486837	4.486837	4.486837
O	6.730251	6.730251	4.486837
O	6.730251	4.486837	6.730251
O	4.486837	6.730251	6.730251
Sr	6.730251	6.730251	6.730251
