40

O	0.000000	2.160334	2.160334
O	2.160334	0.000000	2.160334
O	2.160334	2.160334	0.000000
Pb	2.160334	2.160334	2.160334
Y	0.000000	0.000000	0.000000
O	0.000000	2.160334	6.481001
O	2.160334	0.000000	6.481001
O	2.160334	2.160334	4.320668
Pb	2.160334	2.160334	6.481001
Y	0.000000	0.000000	4.320668
O	0.000000	6.481001	2.160334
O	2.160334	4.320668	2.160334
O	2.160334	6.481001	0.000000
Pb	2.160334	6.481001	2.160334
Y	0.000000	4.320668	0.000000
O	0.000000	6.481001	6.481001
O	2.160334	4.320668	6.481001
O	2.160334	6.481001	4.320668
Pb	2.160334	6.481001	6.481001
Y	0.000000	4.320668	4.320668
O	4.320668	2.160334	2.160334
O	6.481001	0.000000	2.160334
O	6.481001	2.160334	0.000000
Pb	6.481001	2.160334	2.160334
Y	4.320668	0.000000	0.000000
O	4.320668	2.160334	6.481001
O	6.481001	0.000000	6.481001
O	6.481001	2.160334	4.320668
Pb	6.481001	2.160334	6.481001
Y	4.320668	0.000000	4.320668
O	4.320668	6.481001	2.160334
O	6.481001	4.320668	2.160334
O	6.481001	6.481001	0.000000
Pb	6.481001	6.481001	2.160334
Y	4.320668	4.320668	0.000000
O	4.320668	6.481001	6.481001
O	6.481001	4.320668	6.481001
O	6.481001	6.481001	4.320668
Pb	6.481001	6.481001	6.481001
Y	4.320668	4.320668	4.320668
