40

O	2.198090	2.198090	0.000000
O	0.000000	2.198090	2.198090
O	2.198090	0.000000	2.198090
Pa	2.198090	2.198090	2.198090
Tm_3	0.000000	0.000000	0.000000
O	2.198090	2.198090	4.396189
O	0.000000	2.198090	6.594279
O	2.198090	0.000000	6.594279
Pa	2.198090	2.198090	6.594279
Tm_3	0.000000	0.000000	4.396189
O	2.198090	6.594279	0.000000
O	0.000000	6.594279	2.198090
O	2.198090	4.396189	2.198090
Pa	2.198090	6.594279	2.198090
Tm_3	0.000000	4.396189	0.000000
O	2.198090	6.594279	4.396189
O	0.000000	6.594279	6.594279
O	2.198090	4.396189	6.594279
Pa	2.198090	6.594279	6.594279
Tm_3	0.000000	4.396189	4.396189
O	6.594279	2.198090	0.000000
O	4.396189	2.198090	2.198090
O	6.594279	0.000000	2.198090
Pa	6.594279	2.198090	2.198090
Tm_3	4.396189	0.000000	0.000000
O	6.594279	2.198090	4.396189
O	4.396189	2.198090	6.594279
O	6.594279	0.000000	6.594279
Pa	6.594279	2.198090	6.594279
Tm_3	4.396189	0.000000	4.396189
O	6.594279	6.594279	0.000000
O	4.396189	6.594279	2.198090
O	6.594279	4.396189	2.198090
Pa	6.594279	6.594279	2.198090
Tm_3	4.396189	4.396189	0.000000
O	6.594279	6.594279	4.396189
O	4.396189	6.594279	6.594279
O	6.594279	4.396189	6.594279
Pa	6.594279	6.594279	6.594279
Tm_3	4.396189	4.396189	4.396189
