40

Na	2.039246	2.039246	2.039246
Ni	0.000000	0.000000	0.000000
O	0.000000	2.039246	2.039246
O	2.039246	0.000000	2.039246
O	2.039246	2.039246	0.000000
Na	2.039246	2.039246	6.117738
Ni	0.000000	0.000000	4.078492
O	0.000000	2.039246	6.117738
O	2.039246	0.000000	6.117738
O	2.039246	2.039246	4.078492
Na	2.039246	6.117738	2.039246
Ni	0.000000	4.078492	0.000000
O	0.000000	6.117738	2.039246
O	2.039246	4.078492	2.039246
O	2.039246	6.117738	0.000000
Na	2.039246	6.117738	6.117738
Ni	0.000000	4.078492	4.078492
O	0.000000	6.117738	6.117738
O	2.039246	4.078492	6.117738
O	2.039246	6.117738	4.078492
Na	6.117738	2.039246	2.039246
Ni	4.078492	0.000000	0.000000
O	4.078492	2.039246	2.039246
O	6.117738	0.000000	2.039246
O	6.117738	2.039246	0.000000
Na	6.117738	2.039246	6.117738
Ni	4.078492	0.000000	4.078492
O	4.078492	2.039246	6.117738
O	6.117738	0.000000	6.117738
O	6.117738	2.039246	4.078492
Na	6.117738	6.117738	2.039246
Ni	4.078492	4.078492	0.000000
O	4.078492	6.117738	2.039246
O	6.117738	4.078492	2.039246
O	6.117738	6.117738	0.000000
Na	6.117738	6.117738	6.117738
Ni	4.078492	4.078492	4.078492
O	4.078492	6.117738	6.117738
O	6.117738	4.078492	6.117738
O	6.117738	6.117738	4.078492
