40

Cd	0.000000	0.000000	0.000000
Cu	1.875797	1.875797	1.875797
O	1.875797	1.875797	0.000000
O	1.875797	0.000000	1.875797
O	0.000000	1.875797	1.875797
Cd	0.000000	0.000000	3.751590
Cu	1.875797	1.875797	5.627387
O	1.875797	1.875797	3.751590
O	1.875797	0.000000	5.627387
O	0.000000	1.875797	5.627387
Cd	0.000000	3.751590	0.000000
Cu	1.875797	5.627387	1.875797
O	1.875797	5.627387	0.000000
O	1.875797	3.751590	1.875797
O	0.000000	5.627387	1.875797
Cd	0.000000	3.751590	3.751590
Cu	1.875797	5.627387	5.627387
O	1.875797	5.627387	3.751590
O	1.875797	3.751590	5.627387
O	0.000000	5.627387	5.627387
Cd	3.751590	0.000000	0.000000
Cu	5.627387	1.875797	1.875797
O	5.627387	1.875797	0.000000
O	5.627387	0.000000	1.875797
O	3.751590	1.875797	1.875797
Cd	3.751590	0.000000	3.751590
Cu	5.627387	1.875797	5.627387
O	5.627387	1.875797	3.751590
O	5.627387	0.000000	5.627387
O	3.751590	1.875797	5.627387
Cd	3.751590	3.751590	0.000000
Cu	5.627387	5.627387	1.875797
O	5.627387	5.627387	0.000000
O	5.627387	3.751590	1.875797
O	3.751590	5.627387	1.875797
Cd	3.751590	3.751590	3.751590
Cu	5.627387	5.627387	5.627387
O	5.627387	5.627387	3.751590
O	5.627387	3.751590	5.627387
O	3.751590	5.627387	5.627387
