40

Cd	0.000000	0.000000	0.000000
Cu	1.874150	1.874150	1.874150
O	1.874150	0.000000	1.874150
O	0.000000	1.874150	1.874150
O	1.874150	1.874150	0.000000
Cd	0.000000	0.000000	3.748283
Cu	1.874150	1.874150	5.622433
O	1.874150	0.000000	5.622433
O	0.000000	1.874150	5.622433
O	1.874150	1.874150	3.748283
Cd	0.000000	3.748283	0.000000
Cu	1.874150	5.622433	1.874150
O	1.874150	3.748283	1.874150
O	0.000000	5.622433	1.874150
O	1.874150	5.622433	0.000000
Cd	0.000000	3.748283	3.748283
Cu	1.874150	5.622433	5.622433
O	1.874150	3.748283	5.622433
O	0.000000	5.622433	5.622433
O	1.874150	5.622433	3.748283
Cd	3.748283	0.000000	0.000000
Cu	5.622433	1.874150	1.874150
O	5.622433	0.000000	1.874150
O	3.748283	1.874150	1.874150
O	5.622433	1.874150	0.000000
Cd	3.748283	0.000000	3.748283
Cu	5.622433	1.874150	5.622433
O	5.622433	0.000000	5.622433
O	3.748283	1.874150	5.622433
O	5.622433	1.874150	3.748283
Cd	3.748283	3.748283	0.000000
Cu	5.622433	5.622433	1.874150
O	5.622433	3.748283	1.874150
O	3.748283	5.622433	1.874150
O	5.622433	5.622433	0.000000
Cd	3.748283	3.748283	3.748283
Cu	5.622433	5.622433	5.622433
O	5.622433	3.748283	5.622433
O	3.748283	5.622433	5.622433
O	5.622433	5.622433	3.748283
