40

Cd	2.088196	2.088196	2.088196
Cu	0.000000	0.000000	0.000000
O	0.000000	2.088196	2.088196
O	2.088196	0.000000	2.088196
O	2.088196	2.088196	0.000000
Cd	2.088196	2.088196	6.264589
Cu	0.000000	0.000000	4.176393
O	0.000000	2.088196	6.264589
O	2.088196	0.000000	6.264589
O	2.088196	2.088196	4.176393
Cd	2.088196	6.264589	2.088196
Cu	0.000000	4.176393	0.000000
O	0.000000	6.264589	2.088196
O	2.088196	4.176393	2.088196
O	2.088196	6.264589	0.000000
Cd	2.088196	6.264589	6.264589
Cu	0.000000	4.176393	4.176393
O	0.000000	6.264589	6.264589
O	2.088196	4.176393	6.264589
O	2.088196	6.264589	4.176393
Cd	6.264589	2.088196	2.088196
Cu	4.176393	0.000000	0.000000
O	4.176393	2.088196	2.088196
O	6.264589	0.000000	2.088196
O	6.264589	2.088196	0.000000
Cd	6.264589	2.088196	6.264589
Cu	4.176393	0.000000	4.176393
O	4.176393	2.088196	6.264589
O	6.264589	0.000000	6.264589
O	6.264589	2.088196	4.176393
Cd	6.264589	6.264589	2.088196
Cu	4.176393	4.176393	0.000000
O	4.176393	6.264589	2.088196
O	6.264589	4.176393	2.088196
O	6.264589	6.264589	0.000000
Cd	6.264589	6.264589	6.264589
Cu	4.176393	4.176393	4.176393
O	4.176393	6.264589	6.264589
O	6.264589	4.176393	6.264589
O	6.264589	6.264589	4.176393
