40

Cl	0.000000	0.000000	0.000000
O	0.000000	1.983006	1.983006
O	1.983006	0.000000	1.983006
O	1.983006	1.983006	0.000000
Pd	1.983006	1.983006	1.983006
Cl	0.000000	0.000000	3.966012
O	0.000000	1.983006	5.949018
O	1.983006	0.000000	5.949018
O	1.983006	1.983006	3.966012
Pd	1.983006	1.983006	5.949018
Cl	0.000000	3.966012	0.000000
O	0.000000	5.949018	1.983006
O	1.983006	3.966012	1.983006
O	1.983006	5.949018	0.000000
Pd	1.983006	5.949018	1.983006
Cl	0.000000	3.966012	3.966012
O	0.000000	5.949018	5.949018
O	1.983006	3.966012	5.949018
O	1.983006	5.949018	3.966012
Pd	1.983006	5.949018	5.949018
Cl	3.966012	0.000000	0.000000
O	3.966012	1.983006	1.983006
O	5.949018	0.000000	1.983006
O	5.949018	1.983006	0.000000
Pd	5.949018	1.983006	1.983006
Cl	3.966012	0.000000	3.966012
O	3.966012	1.983006	5.949018
O	5.949018	0.000000	5.949018
O	5.949018	1.983006	3.966012
Pd	5.949018	1.983006	5.949018
Cl	3.966012	3.966012	0.000000
O	3.966012	5.949018	1.983006
O	5.949018	3.966012	1.983006
O	5.949018	5.949018	0.000000
Pd	5.949018	5.949018	1.983006
Cl	3.966012	3.966012	3.966012
O	3.966012	5.949018	5.949018
O	5.949018	3.966012	5.949018
O	5.949018	5.949018	3.966012
Pd	5.949018	5.949018	5.949018
