40

Co	0.000000	0.000000	0.000000
O	0.000000	1.937305	1.937305
O	1.937305	0.000000	1.937305
O	1.937305	1.937305	0.000000
Ti	1.937305	1.937305	1.937305
Co	0.000000	0.000000	3.874610
O	0.000000	1.937305	5.811915
O	1.937305	0.000000	5.811915
O	1.937305	1.937305	3.874610
Ti	1.937305	1.937305	5.811915
Co	0.000000	3.874610	0.000000
O	0.000000	5.811915	1.937305
O	1.937305	3.874610	1.937305
O	1.937305	5.811915	0.000000
Ti	1.937305	5.811915	1.937305
Co	0.000000	3.874610	3.874610
O	0.000000	5.811915	5.811915
O	1.937305	3.874610	5.811915
O	1.937305	5.811915	3.874610
Ti	1.937305	5.811915	5.811915
Co	3.874610	0.000000	0.000000
O	3.874610	1.937305	1.937305
O	5.811915	0.000000	1.937305
O	5.811915	1.937305	0.000000
Ti	5.811915	1.937305	1.937305
Co	3.874610	0.000000	3.874610
O	3.874610	1.937305	5.811915
O	5.811915	0.000000	5.811915
O	5.811915	1.937305	3.874610
Ti	5.811915	1.937305	5.811915
Co	3.874610	3.874610	0.000000
O	3.874610	5.811915	1.937305
O	5.811915	3.874610	1.937305
O	5.811915	5.811915	0.000000
Ti	5.811915	5.811915	1.937305
Co	3.874610	3.874610	3.874610
O	3.874610	5.811915	5.811915
O	5.811915	3.874610	5.811915
O	5.811915	5.811915	3.874610
Ti	5.811915	5.811915	5.811915
