40

O	0.000000	2.049993	2.049993
O	2.049993	0.000000	2.049993
O	2.049993	2.049993	0.000000
Pb	0.000000	0.000000	0.000000
Ta	2.049993	2.049993	2.049993
O	0.000000	2.049993	6.149978
O	2.049993	0.000000	6.149978
O	2.049993	2.049993	4.099985
Pb	0.000000	0.000000	4.099985
Ta	2.049993	2.049993	6.149978
O	0.000000	6.149978	2.049993
O	2.049993	4.099985	2.049993
O	2.049993	6.149978	0.000000
Pb	0.000000	4.099985	0.000000
Ta	2.049993	6.149978	2.049993
O	0.000000	6.149978	6.149978
O	2.049993	4.099985	6.149978
O	2.049993	6.149978	4.099985
Pb	0.000000	4.099985	4.099985
Ta	2.049993	6.149978	6.149978
O	4.099985	2.049993	2.049993
O	6.149978	0.000000	2.049993
O	6.149978	2.049993	0.000000
Pb	4.099985	0.000000	0.000000
Ta	6.149978	2.049993	2.049993
O	4.099985	2.049993	6.149978
O	6.149978	0.000000	6.149978
O	6.149978	2.049993	4.099985
Pb	4.099985	0.000000	4.099985
Ta	6.149978	2.049993	6.149978
O	4.099985	6.149978	2.049993
O	6.149978	4.099985	2.049993
O	6.149978	6.149978	0.000000
Pb	4.099985	4.099985	0.000000
Ta	6.149978	6.149978	2.049993
O	4.099985	6.149978	6.149978
O	6.149978	4.099985	6.149978
O	6.149978	6.149978	4.099985
Pb	4.099985	4.099985	4.099985
Ta	6.149978	6.149978	6.149978
