40

O	2.102050	2.102050	0.000000
O	2.102050	0.000000	2.102050
O	0.000000	2.102050	2.102050
Pb	2.102050	2.102050	2.102050
Ta	0.000000	0.000000	0.000000
O	2.102050	2.102050	4.204098
O	2.102050	0.000000	6.306149
O	0.000000	2.102050	6.306149
Pb	2.102050	2.102050	6.306149
Ta	0.000000	0.000000	4.204098
O	2.102050	6.306149	0.000000
O	2.102050	4.204098	2.102050
O	0.000000	6.306149	2.102050
Pb	2.102050	6.306149	2.102050
Ta	0.000000	4.204098	0.000000
O	2.102050	6.306149	4.204098
O	2.102050	4.204098	6.306149
O	0.000000	6.306149	6.306149
Pb	2.102050	6.306149	6.306149
Ta	0.000000	4.204098	4.204098
O	6.306149	2.102050	0.000000
O	6.306149	0.000000	2.102050
O	4.204098	2.102050	2.102050
Pb	6.306149	2.102050	2.102050
Ta	4.204098	0.000000	0.000000
O	6.306149	2.102050	4.204098
O	6.306149	0.000000	6.306149
O	4.204098	2.102050	6.306149
Pb	6.306149	2.102050	6.306149
Ta	4.204098	0.000000	4.204098
O	6.306149	6.306149	0.000000
O	6.306149	4.204098	2.102050
O	4.204098	6.306149	2.102050
Pb	6.306149	6.306149	2.102050
Ta	4.204098	4.204098	0.000000
O	6.306149	6.306149	4.204098
O	6.306149	4.204098	6.306149
O	4.204098	6.306149	6.306149
Pb	6.306149	6.306149	6.306149
Ta	4.204098	4.204098	4.204098
