40

O	1.978730	1.978730	0.000000
O	0.000000	1.978730	1.978730
O	1.978730	0.000000	1.978730
Os_pv	1.978730	1.978730	1.978730
Pm_3	0.000000	0.000000	0.000000
O	1.978730	1.978730	3.957447
O	0.000000	1.978730	5.936177
O	1.978730	0.000000	5.936177
Os_pv	1.978730	1.978730	5.936177
Pm_3	0.000000	0.000000	3.957447
O	1.978730	5.936177	0.000000
O	0.000000	5.936177	1.978730
O	1.978730	3.957447	1.978730
Os_pv	1.978730	5.936177	1.978730
Pm_3	0.000000	3.957447	0.000000
O	1.978730	5.936177	3.957447
O	0.000000	5.936177	5.936177
O	1.978730	3.957447	5.936177
Os_pv	1.978730	5.936177	5.936177
Pm_3	0.000000	3.957447	3.957447
O	5.936177	1.978730	0.000000
O	3.957447	1.978730	1.978730
O	5.936177	0.000000	1.978730
Os_pv	5.936177	1.978730	1.978730
Pm_3	3.957447	0.000000	0.000000
O	5.936177	1.978730	3.957447
O	3.957447	1.978730	5.936177
O	5.936177	0.000000	5.936177
Os_pv	5.936177	1.978730	5.936177
Pm_3	3.957447	0.000000	3.957447
O	5.936177	5.936177	0.000000
O	3.957447	5.936177	1.978730
O	5.936177	3.957447	1.978730
Os_pv	5.936177	5.936177	1.978730
Pm_3	3.957447	3.957447	0.000000
O	5.936177	5.936177	3.957447
O	3.957447	5.936177	5.936177
O	5.936177	3.957447	5.936177
Os_pv	5.936177	5.936177	5.936177
Pm_3	3.957447	3.957447	3.957447
