112

O	-0.925238	3.135689	1.507252
O	3.540714	0.707031	0.064406
O	3.302350	0.717015	3.109119
O	1.989130	3.013290	-0.064406
O	-1.000683	3.247829	4.286563
O	0.858179	0.829155	4.434369
O	0.933624	0.717015	1.655058
O	1.750765	3.023273	2.980308
Cu	0.000000	0.000000	0.000000
Cu	0.090732	3.730305	-0.147806
Rh	2.724636	1.747883	-1.522357
Rh	2.645740	1.865152	1.522356
Rh	-0.033530	1.982422	2.970811
Rh	-1.732923	4.508382	2.823005
O	-1.083030	3.370228	7.596679
O	3.382923	0.941571	6.153833
O	3.144559	0.951555	9.198546
O	1.831339	3.247829	6.025021
O	-1.158475	3.482368	10.375990
O	0.700388	1.063695	10.523796
O	0.775832	0.951554	7.744486
O	1.592974	3.257813	9.069735
Cu	-0.157791	0.234539	6.089427
Cu	-0.067059	3.964844	5.941621
Rh	2.566845	1.982423	4.567070
Rh	2.487948	2.099692	7.611784
Rh	-0.191321	2.216961	9.060238
Rh	-1.890714	4.742921	8.912432
O	-4.324025	8.187608	1.211640
O	0.141928	5.758951	-0.231207
O	-0.096436	5.768935	2.813507
O	-1.409657	8.065210	-0.360018
O	-4.399470	8.299749	3.990951
O	-2.540608	5.881075	4.138757
O	-2.465163	5.768934	1.359446
O	-1.648021	8.075193	2.684696
Cu	-3.398787	5.051920	-0.295612
Cu	-3.308055	8.782224	-0.443418
Rh	-0.674151	6.799803	-1.817969
Rh	-0.753047	6.917072	1.226744
Rh	-3.432317	7.034341	2.675199
Rh	-5.131710	9.560302	2.527393
O	-4.481816	8.422148	7.301067
O	-0.015864	5.993490	5.858221
O	-0.254228	6.003474	8.902934
O	-1.567448	8.299749	5.729409
O	-4.557262	8.534288	10.080378
O	-2.698399	6.115614	10.228184
O	-2.622955	6.003474	7.448873
O	-1.805813	8.309732	8.774123
Cu	-3.556578	5.286459	5.793815
Cu	-3.465846	9.016764	5.646009
Rh	-0.831942	7.034342	4.271458
Rh	-0.910839	7.151611	7.316172
Rh	-3.590108	7.268881	8.764626
Rh	-5.289501	9.794841	8.616820
O	4.433302	2.901149	-1.389655
O	8.899254	0.472492	-2.832502
O	8.660890	0.482476	0.212212
O	7.347670	2.778751	-2.961313
O	4.357856	3.013290	1.389655
O	6.216719	0.594616	1.537462
O	6.292163	0.482475	-1.241849
O	7.109305	2.788734	0.083400
Cu	5.358540	-0.234539	-2.896908
Cu	5.449272	3.495766	-3.044714
Rh	8.083176	1.513344	-4.419265
Rh	8.004279	1.630613	-1.374551
Rh	5.325010	1.747882	0.073903
Rh	3.625617	4.273843	-0.073903
O	4.275510	3.135689	4.699772
O	8.741463	0.707031	3.256925
O	8.503099	0.717015	6.301639
O	7.189879	3.013290	3.128114
O	4.200065	3.247829	7.479083
O	6.058928	0.829155	7.626889
O	6.134372	0.717015	4.847578
O	6.951514	3.023273	6.172827
Cu	5.200748	0.000000	3.192520
Cu	5.291480	3.730305	3.044714
Rh	7.925384	1.747883	1.670163
Rh	7.846488	1.865152	4.714876
Rh	5.167218	1.982422	6.163331
Rh	3.467826	4.508382	6.015524
O	1.034515	7.953069	-1.685267
O	5.500467	5.524412	-3.128114
O	5.262103	5.534396	-0.083401
O	3.948883	7.830670	-3.256926
O	0.959070	8.065209	1.094043
O	2.817932	5.646536	1.241849
O	2.893377	5.534395	-1.537461
O	3.710518	7.840654	-0.212212
Cu	1.959753	4.817380	-3.192520
Cu	2.050485	8.547685	-3.340326
Rh	4.684389	6.565263	-4.714877
Rh	4.605493	6.682533	-1.670163
Rh	1.926223	6.799802	-0.221709
Rh	0.226830	9.325762	-0.369515
O	0.876723	8.187608	4.404160
O	5.342676	5.758951	2.961313
O	5.104312	5.768935	6.006027
O	3.791092	8.065210	2.832502
O	0.801278	8.299749	7.183471
O	2.660141	5.881075	7.331277
O	2.735585	5.768934	4.551966
O	3.552727	8.075193	5.877215
Cu	1.801962	5.051920	2.896908
Cu	1.892693	8.782224	2.749101
Rh	4.526598	6.799803	1.374550
Rh	4.447701	6.917072	4.419264
Rh	1.768432	7.034341	5.867718
Rh	0.069039	9.560302	5.719912
