40

Al	0.000000	0.000000	0.000000
Np	2.142880	2.142880	2.142880
O	2.142880	0.000000	2.142880
O	0.000000	2.142880	2.142880
O	2.142880	2.142880	0.000000
Al	0.000000	0.000000	4.285763
Np	2.142880	2.142880	6.428643
O	2.142880	0.000000	6.428643
O	0.000000	2.142880	6.428643
O	2.142880	2.142880	4.285763
Al	0.000000	4.285763	0.000000
Np	2.142880	6.428643	2.142880
O	2.142880	4.285763	2.142880
O	0.000000	6.428643	2.142880
O	2.142880	6.428643	0.000000
Al	0.000000	4.285763	4.285763
Np	2.142880	6.428643	6.428643
O	2.142880	4.285763	6.428643
O	0.000000	6.428643	6.428643
O	2.142880	6.428643	4.285763
Al	4.285763	0.000000	0.000000
Np	6.428643	2.142880	2.142880
O	6.428643	0.000000	2.142880
O	4.285763	2.142880	2.142880
O	6.428643	2.142880	0.000000
Al	4.285763	0.000000	4.285763
Np	6.428643	2.142880	6.428643
O	6.428643	0.000000	6.428643
O	4.285763	2.142880	6.428643
O	6.428643	2.142880	4.285763
Al	4.285763	4.285763	0.000000
Np	6.428643	6.428643	2.142880
O	6.428643	4.285763	2.142880
O	4.285763	6.428643	2.142880
O	6.428643	6.428643	0.000000
Al	4.285763	4.285763	4.285763
Np	6.428643	6.428643	6.428643
O	6.428643	4.285763	6.428643
O	4.285763	6.428643	6.428643
O	6.428643	6.428643	4.285763
