40

Ac	0.000000	0.000000	0.000000
Lu	2.113180	2.113180	2.113180
O	2.113180	0.000000	2.113180
O	0.000000	2.113180	2.113180
O	2.113180	2.113180	0.000000
Ac	0.000000	0.000000	4.226370
Lu	2.113180	2.113180	6.339550
O	2.113180	0.000000	6.339550
O	0.000000	2.113180	6.339550
O	2.113180	2.113180	4.226370
Ac	0.000000	4.226370	0.000000
Lu	2.113180	6.339550	2.113180
O	2.113180	4.226370	2.113180
O	0.000000	6.339550	2.113180
O	2.113180	6.339550	0.000000
Ac	0.000000	4.226370	4.226370
Lu	2.113180	6.339550	6.339550
O	2.113180	4.226370	6.339550
O	0.000000	6.339550	6.339550
O	2.113180	6.339550	4.226370
Ac	4.226370	0.000000	0.000000
Lu	6.339550	2.113180	2.113180
O	6.339550	0.000000	2.113180
O	4.226370	2.113180	2.113180
O	6.339550	2.113180	0.000000
Ac	4.226370	0.000000	4.226370
Lu	6.339550	2.113180	6.339550
O	6.339550	0.000000	6.339550
O	4.226370	2.113180	6.339550
O	6.339550	2.113180	4.226370
Ac	4.226370	4.226370	0.000000
Lu	6.339550	6.339550	2.113180
O	6.339550	4.226370	2.113180
O	4.226370	6.339550	2.113180
O	6.339550	6.339550	0.000000
Ac	4.226370	4.226370	4.226370
Lu	6.339550	6.339550	6.339550
O	6.339550	4.226370	6.339550
O	4.226370	6.339550	6.339550
O	6.339550	6.339550	4.226370
