40

Cr	1.946288	1.946288	1.946288
O	1.946288	1.946288	0.000000
O	1.946288	0.000000	1.946288
O	0.000000	1.946288	1.946288
Pb	0.000000	0.000000	0.000000
Cr	1.946288	1.946288	5.838863
O	1.946288	1.946288	3.892575
O	1.946288	0.000000	5.838863
O	0.000000	1.946288	5.838863
Pb	0.000000	0.000000	3.892575
Cr	1.946288	5.838863	1.946288
O	1.946288	5.838863	0.000000
O	1.946288	3.892575	1.946288
O	0.000000	5.838863	1.946288
Pb	0.000000	3.892575	0.000000
Cr	1.946288	5.838863	5.838863
O	1.946288	5.838863	3.892575
O	1.946288	3.892575	5.838863
O	0.000000	5.838863	5.838863
Pb	0.000000	3.892575	3.892575
Cr	5.838863	1.946288	1.946288
O	5.838863	1.946288	0.000000
O	5.838863	0.000000	1.946288
O	3.892575	1.946288	1.946288
Pb	3.892575	0.000000	0.000000
Cr	5.838863	1.946288	5.838863
O	5.838863	1.946288	3.892575
O	5.838863	0.000000	5.838863
O	3.892575	1.946288	5.838863
Pb	3.892575	0.000000	3.892575
Cr	5.838863	5.838863	1.946288
O	5.838863	5.838863	0.000000
O	5.838863	3.892575	1.946288
O	3.892575	5.838863	1.946288
Pb	3.892575	3.892575	0.000000
Cr	5.838863	5.838863	5.838863
O	5.838863	5.838863	3.892575
O	5.838863	3.892575	5.838863
O	3.892575	5.838863	5.838863
Pb	3.892575	3.892575	3.892575
