40

Cr	1.913540	1.913540	1.913540
O	0.000000	1.913540	1.913540
O	1.913540	0.000000	1.913540
O	1.913540	1.913540	0.000000
Pb	-0.015000	0.000000	0.000000
Cr	1.913540	1.913540	5.740619
O	0.000000	1.913540	5.740619
O	1.913540	0.000000	5.740619
O	1.913540	1.913540	3.827079
Pb	-0.015000	0.000000	3.827079
Cr	1.913540	5.740619	1.913540
O	0.000000	5.740619	1.913540
O	1.913540	3.827079	1.913540
O	1.913540	5.740619	0.000000
Pb	-0.015000	3.827079	0.000000
Cr	1.913540	5.740619	5.740619
O	0.000000	5.740619	5.740619
O	1.913540	3.827079	5.740619
O	1.913540	5.740619	3.827079
Pb	-0.015000	3.827079	3.827079
Cr	5.740619	1.913540	1.913540
O	3.827079	1.913540	1.913540
O	5.740619	0.000000	1.913540
O	5.740619	1.913540	0.000000
Pb	3.812079	0.000000	0.000000
Cr	5.740619	1.913540	5.740619
O	3.827079	1.913540	5.740619
O	5.740619	0.000000	5.740619
O	5.740619	1.913540	3.827079
Pb	3.812079	0.000000	3.827079
Cr	5.740619	5.740619	1.913540
O	3.827079	5.740619	1.913540
O	5.740619	3.827079	1.913540
O	5.740619	5.740619	0.000000
Pb	3.812079	3.827079	0.000000
Cr	5.740619	5.740619	5.740619
O	3.827079	5.740619	5.740619
O	5.740619	3.827079	5.740619
O	5.740619	5.740619	3.827079
Pb	3.812079	3.827079	3.827079
