40

Cd	2.170928	2.170928	2.170928
F	0.000000	0.000000	0.000000
O	0.000000	2.170928	2.170928
O	2.170928	0.000000	2.170928
O	2.170928	2.170928	0.000000
Cd	2.170928	2.170928	6.512783
F	0.000000	0.000000	4.341855
O	0.000000	2.170928	6.512783
O	2.170928	0.000000	6.512783
O	2.170928	2.170928	4.341855
Cd	2.170928	6.512783	2.170928
F	0.000000	4.341855	0.000000
O	0.000000	6.512783	2.170928
O	2.170928	4.341855	2.170928
O	2.170928	6.512783	0.000000
Cd	2.170928	6.512783	6.512783
F	0.000000	4.341855	4.341855
O	0.000000	6.512783	6.512783
O	2.170928	4.341855	6.512783
O	2.170928	6.512783	4.341855
Cd	6.512783	2.170928	2.170928
F	4.341855	0.000000	0.000000
O	4.341855	2.170928	2.170928
O	6.512783	0.000000	2.170928
O	6.512783	2.170928	0.000000
Cd	6.512783	2.170928	6.512783
F	4.341855	0.000000	4.341855
O	4.341855	2.170928	6.512783
O	6.512783	0.000000	6.512783
O	6.512783	2.170928	4.341855
Cd	6.512783	6.512783	2.170928
F	4.341855	4.341855	0.000000
O	4.341855	6.512783	2.170928
O	6.512783	4.341855	2.170928
O	6.512783	6.512783	0.000000
Cd	6.512783	6.512783	6.512783
F	4.341855	4.341855	4.341855
O	4.341855	6.512783	6.512783
O	6.512783	4.341855	6.512783
O	6.512783	6.512783	4.341855
