112

O	5.031636	3.557904	8.715049
O	1.624550	1.148730	5.832836
O	2.496070	3.613761	4.323320
O	4.239110	1.148730	4.323320
O	4.160116	1.092874	7.205533
O	2.417076	3.557904	7.205533
O	1.624550	1.148730	2.813803
O	5.031636	3.557904	5.696016
Mg	3.328093	2.353317	5.764426
Mg	3.328093	2.353317	2.882213
Mg	2.496070	0.000000	4.323320
Mg	0.832023	2.353317	4.323320
Si	5.824163	4.118305	10.087746
Si	0.832023	0.588329	1.441107
O	5.031636	3.557904	14.479476
O	1.624550	1.148730	11.597263
O	2.496070	3.613761	10.087746
O	4.239110	1.148730	10.087746
O	4.160116	1.092874	12.969959
O	2.417076	3.557904	12.969959
O	1.624550	1.148730	8.578229
O	5.031636	3.557904	11.460442
Mg	3.328093	2.353317	11.528852
Mg	3.328093	2.353317	8.646639
Mg	2.496070	0.000000	10.087746
Mg	0.832023	2.353317	10.087746
Si	5.824163	4.118305	15.852172
Si	0.832023	0.588329	7.205533
O	6.695683	8.264538	11.597263
O	3.288596	5.855365	8.715049
O	4.160116	8.320395	7.205533
O	5.903156	5.855365	7.205533
O	5.824163	5.799508	10.087746
O	4.081123	8.264538	10.087746
O	3.288596	5.855365	5.696016
O	6.695683	8.264538	8.578229
Mg	4.992140	7.059951	8.646639
Mg	4.992140	7.059951	5.764426
Mg	4.160116	4.706634	7.205533
Mg	2.496070	7.059951	7.205533
Si	7.488209	8.824939	12.969959
Si	2.496070	5.294964	4.323320
O	6.695683	8.264538	17.361689
O	3.288596	5.855365	14.479476
O	4.160116	8.320395	12.969959
O	5.903156	5.855365	12.969959
O	5.824163	5.799508	15.852172
O	4.081123	8.264538	15.852172
O	3.288596	5.855365	11.460442
O	6.695683	8.264538	14.342655
Mg	4.992140	7.059951	14.411065
Mg	4.992140	7.059951	11.528852
Mg	4.160116	4.706634	12.969959
Mg	2.496070	7.059951	12.969959
Si	7.488209	8.824939	18.734385
Si	2.496070	5.294964	10.087746
O	10.023776	3.557904	11.597263
O	6.616689	1.148730	8.715049
O	7.488209	3.613761	7.205533
O	9.231249	1.148730	7.205533
O	9.152256	1.092874	10.087746
O	7.409216	3.557904	10.087746
O	6.616689	1.148730	5.696016
O	10.023776	3.557904	8.578229
Mg	8.320233	2.353317	8.646639
Mg	8.320233	2.353317	5.764426
Mg	7.488209	0.000000	7.205533
Mg	5.824163	2.353317	7.205533
Si	10.816302	4.118305	12.969959
Si	5.824163	0.588329	4.323320
O	10.023776	3.557904	17.361689
O	6.616689	1.148730	14.479476
O	7.488209	3.613761	12.969959
O	9.231249	1.148730	12.969959
O	9.152256	1.092874	15.852172
O	7.409216	3.557904	15.852172
O	6.616689	1.148730	11.460442
O	10.023776	3.557904	14.342655
Mg	8.320233	2.353317	14.411065
Mg	8.320233	2.353317	11.528852
Mg	7.488209	0.000000	12.969959
Mg	5.824163	2.353317	12.969959
Si	10.816302	4.118305	18.734385
Si	5.824163	0.588329	10.087746
O	11.687822	8.264538	14.479476
O	8.280736	5.855365	11.597263
O	9.152256	8.320395	10.087746
O	10.895296	5.855365	10.087746
O	10.816302	5.799508	12.969959
O	9.073263	8.264538	12.969959
O	8.280736	5.855365	8.578229
O	11.687822	8.264538	11.460442
Mg	9.984279	7.059951	11.528852
Mg	9.984279	7.059951	8.646639
Mg	9.152256	4.706634	10.087746
Mg	7.488209	7.059951	10.087746
Si	12.480349	8.824939	15.852172
Si	7.488209	5.294964	7.205533
O	11.687822	8.264538	20.243902
O	8.280736	5.855365	17.361689
O	9.152256	8.320395	15.852172
O	10.895296	5.855365	15.852172
O	10.816302	5.799508	18.734385
O	9.073263	8.264538	18.734385
O	8.280736	5.855365	14.342655
O	11.687822	8.264538	17.224868
Mg	9.984279	7.059951	17.293279
Mg	9.984279	7.059951	14.411065
Mg	9.152256	4.706634	15.852172
Mg	7.488209	7.059951	15.852172
Si	12.480349	8.824939	21.616598
Si	7.488209	5.294964	12.969959
