40

As	0.000000	0.000000	0.000000
O	1.995400	0.000000	1.995400
O	0.000000	1.995400	1.995400
O	1.995400	1.995400	0.000000
Ta_pv	1.995400	1.995400	1.995400
As	0.000000	0.000000	3.990785
O	1.995400	0.000000	5.986185
O	0.000000	1.995400	5.986185
O	1.995400	1.995400	3.990785
Ta_pv	1.995400	1.995400	5.986185
As	0.000000	3.990785	0.000000
O	1.995400	3.990785	1.995400
O	0.000000	5.986185	1.995400
O	1.995400	5.986185	0.000000
Ta_pv	1.995400	5.986185	1.995400
As	0.000000	3.990785	3.990785
O	1.995400	3.990785	5.986185
O	0.000000	5.986185	5.986185
O	1.995400	5.986185	3.990785
Ta_pv	1.995400	5.986185	5.986185
As	3.990785	0.000000	0.000000
O	5.986185	0.000000	1.995400
O	3.990785	1.995400	1.995400
O	5.986185	1.995400	0.000000
Ta_pv	5.986185	1.995400	1.995400
As	3.990785	0.000000	3.990785
O	5.986185	0.000000	5.986185
O	3.990785	1.995400	5.986185
O	5.986185	1.995400	3.990785
Ta_pv	5.986185	1.995400	5.986185
As	3.990785	3.990785	0.000000
O	5.986185	3.990785	1.995400
O	3.990785	5.986185	1.995400
O	5.986185	5.986185	0.000000
Ta_pv	5.986185	5.986185	1.995400
As	3.990785	3.990785	3.990785
O	5.986185	3.990785	5.986185
O	3.990785	5.986185	5.986185
O	5.986185	5.986185	3.990785
Ta_pv	5.986185	5.986185	5.986185
