40

Ge	0.000000	0.000000	0.000000
Li	1.856056	1.856056	1.856056
O	0.000000	1.856056	1.856056
O	1.856056	0.000000	1.856056
O	1.856056	1.856056	0.000000
Ge	0.000000	0.000000	3.712112
Li	1.856056	1.856056	5.568168
O	0.000000	1.856056	5.568168
O	1.856056	0.000000	5.568168
O	1.856056	1.856056	3.712112
Ge	0.000000	3.712112	0.000000
Li	1.856056	5.568168	1.856056
O	0.000000	5.568168	1.856056
O	1.856056	3.712112	1.856056
O	1.856056	5.568168	0.000000
Ge	0.000000	3.712112	3.712112
Li	1.856056	5.568168	5.568168
O	0.000000	5.568168	5.568168
O	1.856056	3.712112	5.568168
O	1.856056	5.568168	3.712112
Ge	3.712112	0.000000	0.000000
Li	5.568168	1.856056	1.856056
O	3.712112	1.856056	1.856056
O	5.568168	0.000000	1.856056
O	5.568168	1.856056	0.000000
Ge	3.712112	0.000000	3.712112
Li	5.568168	1.856056	5.568168
O	3.712112	1.856056	5.568168
O	5.568168	0.000000	5.568168
O	5.568168	1.856056	3.712112
Ge	3.712112	3.712112	0.000000
Li	5.568168	5.568168	1.856056
O	3.712112	5.568168	1.856056
O	5.568168	3.712112	1.856056
O	5.568168	5.568168	0.000000
Ge	3.712112	3.712112	3.712112
Li	5.568168	5.568168	5.568168
O	3.712112	5.568168	5.568168
O	5.568168	3.712112	5.568168
O	5.568168	5.568168	3.712112
