40

Ge	0.000000	0.000000	0.000000
Li	1.799268	1.799268	1.799268
O	1.799268	1.799268	0.000000
O	1.799268	0.000000	1.799268
O	0.000000	1.799268	1.799268
Ge	0.000000	0.000000	3.598529
Li	1.799268	1.799268	5.397797
O	1.799268	1.799268	3.598529
O	1.799268	0.000000	5.397797
O	0.000000	1.799268	5.397797
Ge	0.000000	3.598529	0.000000
Li	1.799268	5.397797	1.799268
O	1.799268	5.397797	0.000000
O	1.799268	3.598529	1.799268
O	0.000000	5.397797	1.799268
Ge	0.000000	3.598529	3.598529
Li	1.799268	5.397797	5.397797
O	1.799268	5.397797	3.598529
O	1.799268	3.598529	5.397797
O	0.000000	5.397797	5.397797
Ge	3.598529	0.000000	0.000000
Li	5.397797	1.799268	1.799268
O	5.397797	1.799268	0.000000
O	5.397797	0.000000	1.799268
O	3.598529	1.799268	1.799268
Ge	3.598529	0.000000	3.598529
Li	5.397797	1.799268	5.397797
O	5.397797	1.799268	3.598529
O	5.397797	0.000000	5.397797
O	3.598529	1.799268	5.397797
Ge	3.598529	3.598529	0.000000
Li	5.397797	5.397797	1.799268
O	5.397797	5.397797	0.000000
O	5.397797	3.598529	1.799268
O	3.598529	5.397797	1.799268
Ge	3.598529	3.598529	3.598529
Li	5.397797	5.397797	5.397797
O	5.397797	5.397797	3.598529
O	5.397797	3.598529	5.397797
O	3.598529	5.397797	5.397797
