40

La	0.007950	0.032560	0.017760
Al	1.978880	1.966700	1.818840
O	3.881020	1.961220	1.765830
O	1.952850	0.065840	1.841130
O	1.922840	1.931430	-0.088300
La	0.120837	0.105593	3.826360
Al	2.091767	2.039733	5.627440
O	3.993907	2.034253	5.574430
O	2.065737	0.138873	5.649730
O	2.035727	2.004463	3.720300
La	0.042847	3.840501	-0.056857
Al	2.013777	5.774641	1.744223
O	3.915917	5.769161	1.691213
O	1.987747	3.873781	1.766513
O	1.957737	5.739371	-0.162917
La	0.155734	3.913534	3.751744
Al	2.126664	5.847674	5.552824
O	4.028804	5.842194	5.499814
O	2.100634	3.946814	5.575114
O	2.070624	5.812404	3.645684
La	3.815408	-0.004605	-0.093971
Al	5.786338	1.929535	1.707109
O	7.688478	1.924055	1.654099
O	5.760308	0.028675	1.729399
O	5.730298	1.894265	-0.200031
La	3.928295	0.068428	3.714630
Al	5.899225	2.002568	5.515710
O	7.801365	1.997088	5.462700
O	5.873195	0.101708	5.538000
O	5.843185	1.967298	3.608570
La	3.850305	3.803336	-0.168588
Al	5.821235	5.737476	1.632492
O	7.723375	5.731996	1.579482
O	5.795205	3.836616	1.654782
O	5.765195	5.702206	-0.274648
La	3.963192	3.876369	3.640013
Al	5.934122	5.810509	5.441093
O	7.836262	5.805029	5.388083
O	5.908092	3.909649	5.463383
O	5.878082	5.775239	3.533953
