40

C	0.000000	0.000000	0.000000
Nb	1.977554	1.977554	1.977554
O	0.000000	1.977554	1.977554
O	1.977554	0.000000	1.977554
O	1.977554	1.977554	0.000000
C	0.000000	0.000000	3.955108
Nb	1.977554	1.977554	5.932662
O	0.000000	1.977554	5.932662
O	1.977554	0.000000	5.932662
O	1.977554	1.977554	3.955108
C	0.000000	3.955108	0.000000
Nb	1.977554	5.932662	1.977554
O	0.000000	5.932662	1.977554
O	1.977554	3.955108	1.977554
O	1.977554	5.932662	0.000000
C	0.000000	3.955108	3.955108
Nb	1.977554	5.932662	5.932662
O	0.000000	5.932662	5.932662
O	1.977554	3.955108	5.932662
O	1.977554	5.932662	3.955108
C	3.955108	0.000000	0.000000
Nb	5.932662	1.977554	1.977554
O	3.955108	1.977554	1.977554
O	5.932662	0.000000	1.977554
O	5.932662	1.977554	0.000000
C	3.955108	0.000000	3.955108
Nb	5.932662	1.977554	5.932662
O	3.955108	1.977554	5.932662
O	5.932662	0.000000	5.932662
O	5.932662	1.977554	3.955108
C	3.955108	3.955108	0.000000
Nb	5.932662	5.932662	1.977554
O	3.955108	5.932662	1.977554
O	5.932662	3.955108	1.977554
O	5.932662	5.932662	0.000000
C	3.955108	3.955108	3.955108
Nb	5.932662	5.932662	5.932662
O	3.955108	5.932662	5.932662
O	5.932662	3.955108	5.932662
O	5.932662	5.932662	3.955108
