40

C	0.000000	0.000000	0.000000
Nb	1.981635	1.981635	1.981635
O	0.000000	1.981635	1.981635
O	1.981635	0.000000	1.981635
O	1.981635	1.981635	0.000000
C	0.000000	0.000000	3.963270
Nb	1.981635	1.981635	5.944905
O	0.000000	1.981635	5.944905
O	1.981635	0.000000	5.944905
O	1.981635	1.981635	3.963270
C	0.000000	3.963270	0.000000
Nb	1.981635	5.944905	1.981635
O	0.000000	5.944905	1.981635
O	1.981635	3.963270	1.981635
O	1.981635	5.944905	0.000000
C	0.000000	3.963270	3.963270
Nb	1.981635	5.944905	5.944905
O	0.000000	5.944905	5.944905
O	1.981635	3.963270	5.944905
O	1.981635	5.944905	3.963270
C	3.963270	0.000000	0.000000
Nb	5.944905	1.981635	1.981635
O	3.963270	1.981635	1.981635
O	5.944905	0.000000	1.981635
O	5.944905	1.981635	0.000000
C	3.963270	0.000000	3.963270
Nb	5.944905	1.981635	5.944905
O	3.963270	1.981635	5.944905
O	5.944905	0.000000	5.944905
O	5.944905	1.981635	3.963270
C	3.963270	3.963270	0.000000
Nb	5.944905	5.944905	1.981635
O	3.963270	5.944905	1.981635
O	5.944905	3.963270	1.981635
O	5.944905	5.944905	0.000000
C	3.963270	3.963270	3.963270
Nb	5.944905	5.944905	5.944905
O	3.963270	5.944905	5.944905
O	5.944905	3.963270	5.944905
O	5.944905	5.944905	3.963270
