112

O	3.882583	-0.932041	-0.932041
O	-0.932455	0.932041	-3.884453
O	0.932455	-0.932041	-3.884453
O	1.475064	1.476206	-1.476206
O	5.747494	0.932041	-0.932041
O	1.475064	3.340289	-3.340289
O	3.339974	3.340289	-1.476206
O	3.339974	1.476206	-3.340289
Te	0.000000	0.000000	0.000000
Te	2.407519	-2.408247	-2.408247
Zr	-1.203760	-1.204124	-3.612371
Zr	3.611279	1.204124	-1.204124
Zr	6.018798	-1.204124	-1.204124
Zr	1.203760	1.204124	-3.612371
O	8.697621	3.884453	-0.932041
O	3.882583	5.748536	-3.884453
O	5.747494	3.884453	-3.884453
O	6.290102	6.292700	-1.476206
O	10.562532	5.748536	-0.932041
O	6.290102	8.156783	-3.340289
O	8.155013	8.156783	-1.476206
O	8.155013	6.292700	-3.340289
Te	4.815038	4.816494	0.000000
Te	7.222558	2.408247	-2.408247
Zr	3.611279	3.612371	-3.612371
Zr	8.426317	6.020618	-1.204124
Zr	10.833836	3.612371	-1.204124
Zr	6.018798	6.020618	-3.612371
O	-0.932455	-0.932041	-5.748536
O	-5.747494	0.932041	-8.700947
O	-3.882583	-0.932041	-8.700947
O	-3.339974	1.476206	-6.292700
O	0.932455	0.932041	-5.748536
O	-3.339974	3.340289	-8.156783
O	-1.475064	3.340289	-6.292700
O	-1.475064	1.476206	-8.156783
Te	-4.815038	0.000000	-4.816494
Te	-2.407519	-2.408247	-7.224741
Zr	-6.018798	-1.204124	-8.428865
Zr	-1.203760	1.204124	-6.020618
Zr	1.203760	-1.204124	-6.020618
Zr	-3.611279	1.204124	-8.428865
O	3.882583	3.884453	-5.748536
O	-0.932455	5.748536	-8.700947
O	0.932455	3.884453	-8.700947
O	1.475064	6.292700	-6.292700
O	5.747494	5.748536	-5.748536
O	1.475064	8.156783	-8.156783
O	3.339974	8.156783	-6.292700
O	3.339974	6.292700	-8.156783
Te	0.000000	4.816494	-4.816494
Te	2.407519	2.408247	-7.224741
Zr	-1.203760	3.612371	-8.428865
Zr	3.611279	6.020618	-6.020618
Zr	6.018798	3.612371	-6.020618
Zr	1.203760	6.020618	-8.428865
O	8.697621	-5.748536	-0.932041
O	3.882583	-3.884453	-3.884453
O	5.747494	-5.748536	-3.884453
O	6.290102	-3.340288	-1.476206
O	10.562532	-3.884453	-0.932041
O	6.290102	-1.476206	-3.340289
O	8.155013	-1.476206	-1.476206
O	8.155013	-3.340288	-3.340289
Te	4.815038	-4.816494	0.000000
Te	7.222558	-7.224741	-2.408247
Zr	3.611279	-6.020618	-3.612371
Zr	8.426317	-3.612371	-1.204124
Zr	10.833836	-6.020618	-1.204124
Zr	6.018798	-3.612371	-3.612371
O	13.512660	-0.932041	-0.932041
O	8.697621	0.932041	-3.884453
O	10.562532	-0.932041	-3.884453
O	11.105141	1.476206	-1.476206
O	15.377570	0.932041	-0.932041
O	11.105141	3.340289	-3.340289
O	12.970051	3.340289	-1.476206
O	12.970051	1.476206	-3.340289
Te	9.630077	0.000000	0.000000
Te	12.037596	-2.408247	-2.408247
Zr	8.426317	-1.204124	-3.612371
Zr	13.241355	1.204124	-1.204124
Zr	15.648875	-1.204124	-1.204124
Zr	10.833836	1.204124	-3.612371
O	3.882583	-5.748536	-5.748536
O	-0.932455	-3.884453	-8.700947
O	0.932455	-5.748536	-8.700947
O	1.475064	-3.340288	-6.292700
O	5.747494	-3.884453	-5.748536
O	1.475064	-1.476206	-8.156783
O	3.339974	-1.476206	-6.292700
O	3.339974	-3.340288	-8.156783
Te	0.000000	-4.816494	-4.816494
Te	2.407519	-7.224741	-7.224741
Zr	-1.203760	-6.020618	-8.428865
Zr	3.611279	-3.612371	-6.020618
Zr	6.018798	-6.020618	-6.020618
Zr	1.203760	-3.612371	-8.428865
O	8.697621	-0.932041	-5.748536
O	3.882583	0.932041	-8.700947
O	5.747494	-0.932041	-8.700947
O	6.290102	1.476206	-6.292700
O	10.562532	0.932041	-5.748536
O	6.290102	3.340289	-8.156783
O	8.155013	3.340289	-6.292700
O	8.155013	1.476206	-8.156783
Te	4.815038	0.000000	-4.816494
Te	7.222558	-2.408247	-7.224741
Zr	3.611279	-1.204124	-8.428865
Zr	8.426317	1.204124	-6.020618
Zr	10.833836	-1.204124	-6.020618
Zr	6.018798	1.204124	-8.428865
