40

O	2.029358	2.029358	0.000000
O	2.029358	0.000000	2.029358
O	0.000000	2.029358	2.029358
Pa	0.000000	0.000000	0.000000
Sc	2.029358	2.029358	2.029358
O	2.029358	2.029358	4.058716
O	2.029358	0.000000	6.088074
O	0.000000	2.029358	6.088074
Pa	0.000000	0.000000	4.058716
Sc	2.029358	2.029358	6.088074
O	2.029358	6.088074	0.000000
O	2.029358	4.058716	2.029358
O	0.000000	6.088074	2.029358
Pa	0.000000	4.058716	0.000000
Sc	2.029358	6.088074	2.029358
O	2.029358	6.088074	4.058716
O	2.029358	4.058716	6.088074
O	0.000000	6.088074	6.088074
Pa	0.000000	4.058716	4.058716
Sc	2.029358	6.088074	6.088074
O	6.088074	2.029358	0.000000
O	6.088074	0.000000	2.029358
O	4.058716	2.029358	2.029358
Pa	4.058716	0.000000	0.000000
Sc	6.088074	2.029358	2.029358
O	6.088074	2.029358	4.058716
O	6.088074	0.000000	6.088074
O	4.058716	2.029358	6.088074
Pa	4.058716	0.000000	4.058716
Sc	6.088074	2.029358	6.088074
O	6.088074	6.088074	0.000000
O	6.088074	4.058716	2.029358
O	4.058716	6.088074	2.029358
Pa	4.058716	4.058716	0.000000
Sc	6.088074	6.088074	2.029358
O	6.088074	6.088074	4.058716
O	6.088074	4.058716	6.088074
O	4.058716	6.088074	6.088074
Pa	4.058716	4.058716	4.058716
Sc	6.088074	6.088074	6.088074
