40

Hf	0.000000	0.000000	0.000000
La	2.261242	2.261242	2.261242
O	2.261242	2.261242	0.000000
O	2.261242	0.000000	2.261242
O	0.000000	2.261242	2.261242
Hf	0.000000	0.000000	4.522485
La	2.261242	2.261242	6.783727
O	2.261242	2.261242	4.522485
O	2.261242	0.000000	6.783727
O	0.000000	2.261242	6.783727
Hf	0.000000	4.522485	0.000000
La	2.261242	6.783727	2.261242
O	2.261242	6.783727	0.000000
O	2.261242	4.522485	2.261242
O	0.000000	6.783727	2.261242
Hf	0.000000	4.522485	4.522485
La	2.261242	6.783727	6.783727
O	2.261242	6.783727	4.522485
O	2.261242	4.522485	6.783727
O	0.000000	6.783727	6.783727
Hf	4.522485	0.000000	0.000000
La	6.783727	2.261242	2.261242
O	6.783727	2.261242	0.000000
O	6.783727	0.000000	2.261242
O	4.522485	2.261242	2.261242
Hf	4.522485	0.000000	4.522485
La	6.783727	2.261242	6.783727
O	6.783727	2.261242	4.522485
O	6.783727	0.000000	6.783727
O	4.522485	2.261242	6.783727
Hf	4.522485	4.522485	0.000000
La	6.783727	6.783727	2.261242
O	6.783727	6.783727	0.000000
O	6.783727	4.522485	2.261242
O	4.522485	6.783727	2.261242
Hf	4.522485	4.522485	4.522485
La	6.783727	6.783727	6.783727
O	6.783727	6.783727	4.522485
O	6.783727	4.522485	6.783727
O	4.522485	6.783727	6.783727
