40

Ga	0.000000	0.000000	0.000000
O	0.000000	1.960099	1.960099
O	1.960099	0.000000	1.960099
O	1.960099	1.960099	0.000000
Ru	1.960099	1.960099	1.960099
Ga	0.000000	0.000000	3.920198
O	0.000000	1.960099	5.880297
O	1.960099	0.000000	5.880297
O	1.960099	1.960099	3.920198
Ru	1.960099	1.960099	5.880297
Ga	0.000000	3.920198	0.000000
O	0.000000	5.880297	1.960099
O	1.960099	3.920198	1.960099
O	1.960099	5.880297	0.000000
Ru	1.960099	5.880297	1.960099
Ga	0.000000	3.920198	3.920198
O	0.000000	5.880297	5.880297
O	1.960099	3.920198	5.880297
O	1.960099	5.880297	3.920198
Ru	1.960099	5.880297	5.880297
Ga	3.920198	0.000000	0.000000
O	3.920198	1.960099	1.960099
O	5.880297	0.000000	1.960099
O	5.880297	1.960099	0.000000
Ru	5.880297	1.960099	1.960099
Ga	3.920198	0.000000	3.920198
O	3.920198	1.960099	5.880297
O	5.880297	0.000000	5.880297
O	5.880297	1.960099	3.920198
Ru	5.880297	1.960099	5.880297
Ga	3.920198	3.920198	0.000000
O	3.920198	5.880297	1.960099
O	5.880297	3.920198	1.960099
O	5.880297	5.880297	0.000000
Ru	5.880297	5.880297	1.960099
Ga	3.920198	3.920198	3.920198
O	3.920198	5.880297	5.880297
O	5.880297	3.920198	5.880297
O	5.880297	5.880297	3.920198
Ru	5.880297	5.880297	5.880297
