40

Er	0.000000	0.000000	0.000000
O	2.131150	2.131150	0.000000
O	0.000000	2.131150	2.131150
O	2.131150	0.000000	2.131150
Pb	2.131150	2.131150	2.131150
Er	0.000000	0.000000	4.262297
O	2.131150	2.131150	4.262297
O	0.000000	2.131150	6.393447
O	2.131150	0.000000	6.393447
Pb	2.131150	2.131150	6.393447
Er	0.000000	4.262297	0.000000
O	2.131150	6.393447	0.000000
O	0.000000	6.393447	2.131150
O	2.131150	4.262297	2.131150
Pb	2.131150	6.393447	2.131150
Er	0.000000	4.262297	4.262297
O	2.131150	6.393447	4.262297
O	0.000000	6.393447	6.393447
O	2.131150	4.262297	6.393447
Pb	2.131150	6.393447	6.393447
Er	4.262297	0.000000	0.000000
O	6.393447	2.131150	0.000000
O	4.262297	2.131150	2.131150
O	6.393447	0.000000	2.131150
Pb	6.393447	2.131150	2.131150
Er	4.262297	0.000000	4.262297
O	6.393447	2.131150	4.262297
O	4.262297	2.131150	6.393447
O	6.393447	0.000000	6.393447
Pb	6.393447	2.131150	6.393447
Er	4.262297	4.262297	0.000000
O	6.393447	6.393447	0.000000
O	4.262297	6.393447	2.131150
O	6.393447	4.262297	2.131150
Pb	6.393447	6.393447	2.131150
Er	4.262297	4.262297	4.262297
O	6.393447	6.393447	4.262297
O	4.262297	6.393447	6.393447
O	6.393447	4.262297	6.393447
Pb	6.393447	6.393447	6.393447
