40

As	0.000000	0.000000	0.000000
O	2.154410	0.000000	2.154410
O	0.000000	2.154410	2.154410
O	2.154410	2.154410	0.000000
U	2.154410	2.154410	2.154410
As	0.000000	0.000000	4.308806
O	2.154410	0.000000	6.463216
O	0.000000	2.154410	6.463216
O	2.154410	2.154410	4.308806
U	2.154410	2.154410	6.463216
As	0.000000	4.308806	0.000000
O	2.154410	4.308806	2.154410
O	0.000000	6.463216	2.154410
O	2.154410	6.463216	0.000000
U	2.154410	6.463216	2.154410
As	0.000000	4.308806	4.308806
O	2.154410	4.308806	6.463216
O	0.000000	6.463216	6.463216
O	2.154410	6.463216	4.308806
U	2.154410	6.463216	6.463216
As	4.308806	0.000000	0.000000
O	6.463216	0.000000	2.154410
O	4.308806	2.154410	2.154410
O	6.463216	2.154410	0.000000
U	6.463216	2.154410	2.154410
As	4.308806	0.000000	4.308806
O	6.463216	0.000000	6.463216
O	4.308806	2.154410	6.463216
O	6.463216	2.154410	4.308806
U	6.463216	2.154410	6.463216
As	4.308806	4.308806	0.000000
O	6.463216	4.308806	2.154410
O	4.308806	6.463216	2.154410
O	6.463216	6.463216	0.000000
U	6.463216	6.463216	2.154410
As	4.308806	4.308806	4.308806
O	6.463216	4.308806	6.463216
O	4.308806	6.463216	6.463216
O	6.463216	6.463216	4.308806
U	6.463216	6.463216	6.463216
