40

As	2.013209	2.013209	2.013209
O	2.013209	2.013209	0.000000
O	0.000000	2.013209	2.013209
O	2.013209	0.000000	2.013209
U	0.000000	0.000000	0.000000
As	2.013209	2.013209	6.039636
O	2.013209	2.013209	4.026427
O	0.000000	2.013209	6.039636
O	2.013209	0.000000	6.039636
U	0.000000	0.000000	4.026427
As	2.013209	6.039636	2.013209
O	2.013209	6.039636	0.000000
O	0.000000	6.039636	2.013209
O	2.013209	4.026427	2.013209
U	0.000000	4.026427	0.000000
As	2.013209	6.039636	6.039636
O	2.013209	6.039636	4.026427
O	0.000000	6.039636	6.039636
O	2.013209	4.026427	6.039636
U	0.000000	4.026427	4.026427
As	6.039636	2.013209	2.013209
O	6.039636	2.013209	0.000000
O	4.026427	2.013209	2.013209
O	6.039636	0.000000	2.013209
U	4.026427	0.000000	0.000000
As	6.039636	2.013209	6.039636
O	6.039636	2.013209	4.026427
O	4.026427	2.013209	6.039636
O	6.039636	0.000000	6.039636
U	4.026427	0.000000	4.026427
As	6.039636	6.039636	2.013209
O	6.039636	6.039636	0.000000
O	4.026427	6.039636	2.013209
O	6.039636	4.026427	2.013209
U	4.026427	4.026427	0.000000
As	6.039636	6.039636	6.039636
O	6.039636	6.039636	4.026427
O	4.026427	6.039636	6.039636
O	6.039636	4.026427	6.039636
U	4.026427	4.026427	4.026427
