112

Ca	0.000000	0.000000	0.000000
Ca	2.291262	-2.278839	-2.278839
O	0.991590	-0.998009	-3.559669
O	3.590925	-0.998009	-0.998009
O	-0.991590	0.998009	-3.559669
O	1.299663	1.280830	-1.280830
O	5.574104	0.998009	-0.998009
O	3.282851	3.276847	-1.280830
O	3.282851	1.280830	-3.276847
O	1.299663	3.276847	-3.276847
Sc	-1.145626	-1.139419	-3.418258
Sc	1.145626	1.139419	-3.418258
Sc	3.436888	1.139419	-1.139419
Sc	5.728150	-1.139419	-1.139419
Ca	4.582516	4.557676	0.000000
Ca	6.873778	2.278838	-2.278839
O	5.574106	3.559668	-3.559669
O	8.173441	3.559668	-0.998009
O	3.590927	5.555685	-3.559669
O	5.882179	5.838506	-1.280830
O	10.156620	5.555685	-0.998009
O	7.865368	7.834523	-1.280830
O	7.865368	5.838506	-3.276847
O	5.882179	7.834523	-3.276847
Sc	3.436890	3.418257	-3.418258
Sc	5.728143	5.697096	-3.418258
Sc	8.019404	5.697096	-1.139419
Sc	10.310666	3.418257	-1.139419
Ca	-4.582516	0.000000	-4.557676
Ca	-2.291255	-2.278839	-6.836515
O	-3.590927	-0.998009	-8.117345
O	-0.991592	-0.998009	-5.555685
O	-5.574106	0.998009	-8.117345
O	-3.282853	1.280830	-5.838506
O	0.991588	0.998009	-5.555685
O	-1.299665	3.276847	-5.838506
O	-1.299665	1.280830	-7.834523
O	-3.282853	3.276847	-7.834523
Sc	-5.728143	-1.139419	-7.975934
Sc	-3.436890	1.139419	-7.975934
Sc	-1.145628	1.139419	-5.697096
Sc	1.145633	-1.139419	-5.697096
Ca	0.000000	4.557676	-4.557676
Ca	2.291262	2.278838	-6.836515
O	0.991590	3.559668	-8.117345
O	3.590925	3.559668	-5.555685
O	-0.991590	5.555685	-8.117345
O	1.299663	5.838506	-5.838506
O	5.574104	5.555685	-5.555685
O	3.282851	7.834523	-5.838506
O	3.282851	5.838506	-7.834523
O	1.299663	7.834523	-7.834523
Sc	-1.145626	3.418257	-7.975934
Sc	1.145626	5.697096	-7.975934
Sc	3.436888	5.697096	-5.697096
Sc	5.728150	3.418257	-5.697096
Ca	4.582516	-4.557676	0.000000
Ca	6.873778	-6.836515	-2.278839
O	5.574106	-5.555685	-3.559669
O	8.173441	-5.555685	-0.998009
O	3.590927	-3.559668	-3.559669
O	5.882179	-3.276846	-1.280830
O	10.156620	-3.559668	-0.998009
O	7.865368	-1.280829	-1.280830
O	7.865368	-3.276846	-3.276847
O	5.882179	-1.280829	-3.276847
Sc	3.436890	-5.697096	-3.418258
Sc	5.728143	-3.418257	-3.418258
Sc	8.019404	-3.418257	-1.139419
Sc	10.310666	-5.697096	-1.139419
Ca	9.165033	0.000000	0.000000
Ca	11.456294	-2.278839	-2.278839
O	10.156622	-0.998009	-3.559669
O	12.755957	-0.998009	-0.998009
O	8.173443	0.998009	-3.559669
O	10.464696	1.280830	-1.280830
O	14.739137	0.998009	-0.998009
O	12.447884	3.276847	-1.280830
O	12.447884	1.280830	-3.276847
O	10.464695	3.276847	-3.276847
Sc	8.019406	-1.139419	-3.418258
Sc	10.310659	1.139419	-3.418258
Sc	12.601921	1.139419	-1.139419
Sc	14.893182	-1.139419	-1.139419
Ca	0.000000	-4.557676	-4.557676
Ca	2.291262	-6.836515	-6.836515
O	0.991590	-5.555685	-8.117345
O	3.590925	-5.555685	-5.555685
O	-0.991590	-3.559668	-8.117345
O	1.299663	-3.276846	-5.838506
O	5.574104	-3.559668	-5.555685
O	3.282851	-1.280829	-5.838506
O	3.282851	-3.276846	-7.834523
O	1.299663	-1.280829	-7.834523
Sc	-1.145626	-5.697096	-7.975934
Sc	1.145626	-3.418257	-7.975934
Sc	3.436888	-3.418257	-5.697096
Sc	5.728150	-5.697096	-5.697096
Ca	4.582516	0.000000	-4.557676
Ca	6.873778	-2.278839	-6.836515
O	5.574106	-0.998009	-8.117345
O	8.173441	-0.998009	-5.555685
O	3.590927	0.998009	-8.117345
O	5.882179	1.280830	-5.838506
O	10.156620	0.998009	-5.555685
O	7.865368	3.276847	-5.838506
O	7.865368	1.280830	-7.834523
O	5.882179	3.276847	-7.834523
Sc	3.436890	-1.139419	-7.975934
Sc	5.728143	1.139419	-7.975934
Sc	8.019404	1.139419	-5.697096
Sc	10.310666	-1.139419	-5.697096
