112

Eu	0.000000	0.000000	0.000000
Eu	2.242165	-2.243266	-2.243266
O	-0.943033	0.942551	-3.543981
O	3.541286	-0.942551	-0.942551
O	0.943033	-0.942551	-3.543981
O	1.299131	1.300715	-1.300715
O	5.427353	0.942551	-0.942551
O	1.299131	3.185827	-3.185827
O	3.185188	1.300715	-3.185827
O	3.185188	3.185827	-1.300715
Ru	-1.121082	-1.121633	-3.364899
Ru	3.363237	1.121633	-1.121633
Ru	1.121082	1.121633	-3.364899
Ru	5.605402	-1.121633	-1.121633
Eu	4.484320	4.486533	0.000000
Eu	6.726485	2.243267	-2.243266
O	3.541287	5.429084	-3.543981
O	8.025606	3.543982	-0.942551
O	5.427353	3.543981	-3.543981
O	5.783451	5.787247	-1.300715
O	9.911673	5.429084	-0.942551
O	5.783451	7.672360	-3.185827
O	7.669508	5.787247	-3.185827
O	7.669508	7.672360	-1.300715
Ru	3.363238	3.364900	-3.364899
Ru	7.847557	5.608166	-1.121633
Ru	5.605402	5.608166	-3.364899
Ru	10.089722	3.364900	-1.121633
Eu	-4.484320	0.000000	-4.486533
Eu	-2.242155	-2.243266	-6.729799
O	-5.427353	0.942551	-8.030513
O	-0.943034	-0.942551	-5.429084
O	-3.541287	-0.942551	-8.030513
O	-3.185189	1.300715	-5.787247
O	0.943033	0.942551	-5.429084
O	-3.185189	3.185827	-7.672360
O	-1.299132	1.300715	-7.672360
O	-1.299132	3.185827	-5.787247
Ru	-5.605402	-1.121633	-7.851431
Ru	-1.121083	1.121633	-5.608166
Ru	-3.363238	1.121633	-7.851431
Ru	1.121082	-1.121633	-5.608166
Eu	0.000000	4.486533	-4.486533
Eu	2.242165	2.243267	-6.729799
O	-0.943033	5.429084	-8.030513
O	3.541286	3.543982	-5.429084
O	0.943033	3.543981	-8.030513
O	1.299131	5.787247	-5.787247
O	5.427353	5.429084	-5.429084
O	1.299131	7.672360	-7.672360
O	3.185188	5.787247	-7.672360
O	3.185188	7.672360	-5.787247
Ru	-1.121082	3.364900	-7.851431
Ru	3.363237	5.608166	-5.608166
Ru	1.121082	5.608166	-7.851431
Ru	5.605402	3.364900	-5.608166
Eu	4.484320	-4.486533	0.000000
Eu	6.726485	-6.729799	-2.243266
O	3.541287	-3.543981	-3.543981
O	8.025606	-5.429084	-0.942551
O	5.427353	-5.429084	-3.543981
O	5.783451	-3.185818	-1.300715
O	9.911673	-3.543982	-0.942551
O	5.783451	-1.300706	-3.185827
O	7.669508	-3.185818	-3.185827
O	7.669508	-1.300706	-1.300715
Ru	3.363238	-5.608166	-3.364899
Ru	7.847557	-3.364900	-1.121633
Ru	5.605402	-3.364900	-3.364899
Ru	10.089722	-5.608166	-1.121633
Eu	8.968640	0.000000	0.000000
Eu	11.210805	-2.243266	-2.243266
O	8.025607	0.942551	-3.543981
O	12.509926	-0.942551	-0.942551
O	9.911673	-0.942551	-3.543981
O	10.267771	1.300715	-1.300715
O	14.395993	0.942551	-0.942551
O	10.267771	3.185827	-3.185827
O	12.153828	1.300715	-3.185827
O	12.153828	3.185827	-1.300715
Ru	7.847558	-1.121633	-3.364899
Ru	12.331877	1.121633	-1.121633
Ru	10.089722	1.121633	-3.364899
Ru	14.574042	-1.121633	-1.121633
Eu	0.000000	-4.486533	-4.486533
Eu	2.242165	-6.729799	-6.729799
O	-0.943033	-3.543981	-8.030513
O	3.541286	-5.429084	-5.429084
O	0.943033	-5.429084	-8.030513
O	1.299131	-3.185818	-5.787247
O	5.427353	-3.543982	-5.429084
O	1.299131	-1.300706	-7.672360
O	3.185188	-3.185818	-7.672360
O	3.185188	-1.300706	-5.787247
Ru	-1.121082	-5.608166	-7.851431
Ru	3.363237	-3.364900	-5.608166
Ru	1.121082	-3.364900	-7.851431
Ru	5.605402	-5.608166	-5.608166
Eu	4.484320	0.000000	-4.486533
Eu	6.726485	-2.243266	-6.729799
O	3.541287	0.942551	-8.030513
O	8.025606	-0.942551	-5.429084
O	5.427353	-0.942551	-8.030513
O	5.783451	1.300715	-5.787247
O	9.911673	0.942551	-5.429084
O	5.783451	3.185827	-7.672360
O	7.669508	1.300715	-7.672360
O	7.669508	3.185827	-5.787247
Ru	3.363238	-1.121633	-7.851431
Ru	7.847557	1.121633	-5.608166
Ru	5.605402	1.121633	-7.851431
Ru	10.089722	-1.121633	-5.608166
