112

Ag	0.000000	0.000000	0.000000
Ag	2.254291	-2.255300	-2.255300
O	3.536364	-0.972039	-0.972039
O	-0.972219	0.972039	-3.538561
O	0.972219	-0.972039	-3.538561
O	1.282072	1.283261	-1.283261
O	5.480802	0.972039	-0.972039
O	1.282072	3.227339	-3.227339
O	3.226511	3.227339	-1.283261
O	3.226510	1.283261	-3.227339
Ta	-1.127146	-1.127650	-3.382950
Ta	3.381437	1.127650	-1.127650
Ta	5.635728	-1.127650	-1.127650
Ta	1.127146	1.127650	-3.382950
Ag	4.508583	4.510600	0.000000
Ag	6.762874	2.255300	-2.255300
O	8.044946	3.538561	-0.972039
O	3.536364	5.482639	-3.538561
O	5.480802	3.538561	-3.538561
O	5.790655	5.793861	-1.283261
O	9.989385	5.482639	-0.972039
O	5.790655	7.737939	-3.227339
O	7.735093	7.737939	-1.283261
O	7.735093	5.793861	-3.227339
Ta	3.381437	3.382950	-3.382950
Ta	7.890020	5.638250	-1.127650
Ta	10.144311	3.382950	-1.127650
Ta	5.635728	5.638250	-3.382950
Ag	-4.508583	0.000000	-4.510600
Ag	-2.254291	-2.255300	-6.765900
O	-0.972219	-0.972039	-5.482639
O	-5.480802	0.972039	-8.049161
O	-3.536364	-0.972039	-8.049161
O	-3.226510	1.283261	-5.793861
O	0.972219	0.972039	-5.482639
O	-3.226511	3.227339	-7.737939
O	-1.282072	3.227339	-5.793861
O	-1.282072	1.283261	-7.737939
Ta	-5.635728	-1.127650	-7.893550
Ta	-1.127146	1.127650	-5.638250
Ta	1.127146	-1.127650	-5.638250
Ta	-3.381437	1.127650	-7.893550
Ag	0.000000	4.510600	-4.510600
Ag	2.254291	2.255300	-6.765900
O	3.536364	3.538561	-5.482639
O	-0.972219	5.482639	-8.049161
O	0.972219	3.538561	-8.049161
O	1.282072	5.793861	-5.793861
O	5.480802	5.482639	-5.482639
O	1.282072	7.737939	-7.737939
O	3.226511	7.737939	-5.793861
O	3.226510	5.793861	-7.737939
Ta	-1.127146	3.382950	-7.893550
Ta	3.381437	5.638250	-5.638250
Ta	5.635728	3.382950	-5.638250
Ta	1.127146	5.638250	-7.893550
Ag	4.508583	-4.510600	0.000000
Ag	6.762874	-6.765900	-2.255300
O	8.044946	-5.482639	-0.972039
O	3.536364	-3.538561	-3.538561
O	5.480802	-5.482639	-3.538561
O	5.790655	-3.227339	-1.283261
O	9.989385	-3.538561	-0.972039
O	5.790655	-1.283261	-3.227339
O	7.735093	-1.283261	-1.283261
O	7.735093	-3.227339	-3.227339
Ta	3.381437	-5.638250	-3.382950
Ta	7.890020	-3.382950	-1.127650
Ta	10.144311	-5.638250	-1.127650
Ta	5.635728	-3.382950	-3.382950
Ag	9.017165	0.000000	0.000000
Ag	11.271457	-2.255300	-2.255300
O	12.553529	-0.972039	-0.972039
O	8.044946	0.972039	-3.538561
O	9.989385	-0.972039	-3.538561
O	10.299238	1.283261	-1.283261
O	14.497967	0.972039	-0.972039
O	10.299238	3.227339	-3.227339
O	12.243676	3.227339	-1.283261
O	12.243676	1.283261	-3.227339
Ta	7.890020	-1.127650	-3.382950
Ta	12.398602	1.127650	-1.127650
Ta	14.652894	-1.127650	-1.127650
Ta	10.144311	1.127650	-3.382950
Ag	0.000000	-4.510600	-4.510600
Ag	2.254291	-6.765900	-6.765900
O	3.536364	-5.482639	-5.482639
O	-0.972219	-3.538561	-8.049161
O	0.972219	-5.482639	-8.049161
O	1.282072	-3.227339	-5.793861
O	5.480802	-3.538561	-5.482639
O	1.282072	-1.283261	-7.737939
O	3.226511	-1.283261	-5.793861
O	3.226510	-3.227339	-7.737939
Ta	-1.127146	-5.638250	-7.893550
Ta	3.381437	-3.382950	-5.638250
Ta	5.635728	-5.638250	-5.638250
Ta	1.127146	-3.382950	-7.893550
Ag	4.508583	0.000000	-4.510600
Ag	6.762874	-2.255300	-6.765900
O	8.044946	-0.972039	-5.482639
O	3.536364	0.972039	-8.049161
O	5.480802	-0.972039	-8.049161
O	5.790655	1.283261	-5.793861
O	9.989385	0.972039	-5.482639
O	5.790655	3.227339	-7.737939
O	7.735093	3.227339	-5.793861
O	7.735093	1.283261	-7.737939
Ta	3.381437	-1.127650	-7.893550
Ta	7.890020	1.127650	-5.638250
Ta	10.144311	-1.127650	-5.638250
Ta	5.635728	1.127650	-7.893550
