40

Ga	1.920810	1.920810	1.920810
O	1.920810	1.920810	0.000000
O	1.920810	0.000000	1.920810
O	0.000000	1.920810	1.920810
Si	0.000000	0.000000	0.000000
Ga	1.920810	1.920810	5.762430
O	1.920810	1.920810	3.841620
O	1.920810	0.000000	5.762430
O	0.000000	1.920810	5.762430
Si	0.000000	0.000000	3.841620
Ga	1.920810	5.762430	1.920810
O	1.920810	5.762430	0.000000
O	1.920810	3.841620	1.920810
O	0.000000	5.762430	1.920810
Si	0.000000	3.841620	0.000000
Ga	1.920810	5.762430	5.762430
O	1.920810	5.762430	3.841620
O	1.920810	3.841620	5.762430
O	0.000000	5.762430	5.762430
Si	0.000000	3.841620	3.841620
Ga	5.762430	1.920810	1.920810
O	5.762430	1.920810	0.000000
O	5.762430	0.000000	1.920810
O	3.841620	1.920810	1.920810
Si	3.841620	0.000000	0.000000
Ga	5.762430	1.920810	5.762430
O	5.762430	1.920810	3.841620
O	5.762430	0.000000	5.762430
O	3.841620	1.920810	5.762430
Si	3.841620	0.000000	3.841620
Ga	5.762430	5.762430	1.920810
O	5.762430	5.762430	0.000000
O	5.762430	3.841620	1.920810
O	3.841620	5.762430	1.920810
Si	3.841620	3.841620	0.000000
Ga	5.762430	5.762430	5.762430
O	5.762430	5.762430	3.841620
O	5.762430	3.841620	5.762430
O	3.841620	5.762430	5.762430
Si	3.841620	3.841620	3.841620
