40

O	0.000000	1.892685	1.892685
O	1.892685	0.000000	1.892685
O	1.892685	1.892685	0.000000
Y	0.000000	0.000000	0.000000
Zn	1.892685	1.892685	1.892685
O	0.000000	1.892685	5.678056
O	1.892685	0.000000	5.678056
O	1.892685	1.892685	3.785371
Y	0.000000	0.000000	3.785371
Zn	1.892685	1.892685	5.678056
O	0.000000	5.678056	1.892685
O	1.892685	3.785371	1.892685
O	1.892685	5.678056	0.000000
Y	0.000000	3.785371	0.000000
Zn	1.892685	5.678056	1.892685
O	0.000000	5.678056	5.678056
O	1.892685	3.785371	5.678056
O	1.892685	5.678056	3.785371
Y	0.000000	3.785371	3.785371
Zn	1.892685	5.678056	5.678056
O	3.785371	1.892685	1.892685
O	5.678056	0.000000	1.892685
O	5.678056	1.892685	0.000000
Y	3.785371	0.000000	0.000000
Zn	5.678056	1.892685	1.892685
O	3.785371	1.892685	5.678056
O	5.678056	0.000000	5.678056
O	5.678056	1.892685	3.785371
Y	3.785371	0.000000	3.785371
Zn	5.678056	1.892685	5.678056
O	3.785371	5.678056	1.892685
O	5.678056	3.785371	1.892685
O	5.678056	5.678056	0.000000
Y	3.785371	3.785371	0.000000
Zn	5.678056	5.678056	1.892685
O	3.785371	5.678056	5.678056
O	5.678056	3.785371	5.678056
O	5.678056	5.678056	3.785371
Y	3.785371	3.785371	3.785371
Zn	5.678056	5.678056	5.678056
