40

O	2.004630	0.000000	2.004630
O	0.000000	2.004630	2.004630
O	2.004630	2.004630	0.000000
Th	0.000000	0.000000	0.000000
W_pv	2.004630	2.004630	2.004630
O	2.004630	0.000000	6.013884
O	0.000000	2.004630	6.013884
O	2.004630	2.004630	4.009254
Th	0.000000	0.000000	4.009254
W_pv	2.004630	2.004630	6.013884
O	2.004630	4.009254	2.004630
O	0.000000	6.013884	2.004630
O	2.004630	6.013884	0.000000
Th	0.000000	4.009254	0.000000
W_pv	2.004630	6.013884	2.004630
O	2.004630	4.009254	6.013884
O	0.000000	6.013884	6.013884
O	2.004630	6.013884	4.009254
Th	0.000000	4.009254	4.009254
W_pv	2.004630	6.013884	6.013884
O	6.013884	0.000000	2.004630
O	4.009254	2.004630	2.004630
O	6.013884	2.004630	0.000000
Th	4.009254	0.000000	0.000000
W_pv	6.013884	2.004630	2.004630
O	6.013884	0.000000	6.013884
O	4.009254	2.004630	6.013884
O	6.013884	2.004630	4.009254
Th	4.009254	0.000000	4.009254
W_pv	6.013884	2.004630	6.013884
O	6.013884	4.009254	2.004630
O	4.009254	6.013884	2.004630
O	6.013884	6.013884	0.000000
Th	4.009254	4.009254	0.000000
W_pv	6.013884	6.013884	2.004630
O	6.013884	4.009254	6.013884
O	4.009254	6.013884	6.013884
O	6.013884	6.013884	4.009254
Th	4.009254	4.009254	4.009254
W_pv	6.013884	6.013884	6.013884
