40

Br	0.000000	0.000000	0.000000
Cu	1.912146	1.912146	1.912146
O	0.000000	1.912146	1.912146
O	1.912146	0.000000	1.912146
O	1.912146	1.912146	0.000000
Br	0.000000	0.000000	3.824293
Cu	1.912146	1.912146	5.736439
O	0.000000	1.912146	5.736439
O	1.912146	0.000000	5.736439
O	1.912146	1.912146	3.824293
Br	0.000000	3.824293	0.000000
Cu	1.912146	5.736439	1.912146
O	0.000000	5.736439	1.912146
O	1.912146	3.824293	1.912146
O	1.912146	5.736439	0.000000
Br	0.000000	3.824293	3.824293
Cu	1.912146	5.736439	5.736439
O	0.000000	5.736439	5.736439
O	1.912146	3.824293	5.736439
O	1.912146	5.736439	3.824293
Br	3.824293	0.000000	0.000000
Cu	5.736439	1.912146	1.912146
O	3.824293	1.912146	1.912146
O	5.736439	0.000000	1.912146
O	5.736439	1.912146	0.000000
Br	3.824293	0.000000	3.824293
Cu	5.736439	1.912146	5.736439
O	3.824293	1.912146	5.736439
O	5.736439	0.000000	5.736439
O	5.736439	1.912146	3.824293
Br	3.824293	3.824293	0.000000
Cu	5.736439	5.736439	1.912146
O	3.824293	5.736439	1.912146
O	5.736439	3.824293	1.912146
O	5.736439	5.736439	0.000000
Br	3.824293	3.824293	3.824293
Cu	5.736439	5.736439	5.736439
O	3.824293	5.736439	5.736439
O	5.736439	3.824293	5.736439
O	5.736439	5.736439	3.824293
