40

Mg	0.000000	0.000000	0.000000
O	2.182770	2.182770	0.000000
O	0.000000	2.182770	2.182770
O	2.182770	0.000000	2.182770
Pa	2.182770	2.182770	2.182770
Mg	0.000000	0.000000	4.365535
O	2.182770	2.182770	4.365535
O	0.000000	2.182770	6.548305
O	2.182770	0.000000	6.548305
Pa	2.182770	2.182770	6.548305
Mg	0.000000	4.365535	0.000000
O	2.182770	6.548305	0.000000
O	0.000000	6.548305	2.182770
O	2.182770	4.365535	2.182770
Pa	2.182770	6.548305	2.182770
Mg	0.000000	4.365535	4.365535
O	2.182770	6.548305	4.365535
O	0.000000	6.548305	6.548305
O	2.182770	4.365535	6.548305
Pa	2.182770	6.548305	6.548305
Mg	4.365535	0.000000	0.000000
O	6.548305	2.182770	0.000000
O	4.365535	2.182770	2.182770
O	6.548305	0.000000	2.182770
Pa	6.548305	2.182770	2.182770
Mg	4.365535	0.000000	4.365535
O	6.548305	2.182770	4.365535
O	4.365535	2.182770	6.548305
O	6.548305	0.000000	6.548305
Pa	6.548305	2.182770	6.548305
Mg	4.365535	4.365535	0.000000
O	6.548305	6.548305	0.000000
O	4.365535	6.548305	2.182770
O	6.548305	4.365535	2.182770
Pa	6.548305	6.548305	2.182770
Mg	4.365535	4.365535	4.365535
O	6.548305	6.548305	4.365535
O	4.365535	6.548305	6.548305
O	6.548305	4.365535	6.548305
Pa	6.548305	6.548305	6.548305
