144

O	3.925309	5.513837	11.270336
O	1.838861	4.038495	7.656502
O	6.506932	1.862872	11.270336
O	7.797743	5.513837	9.034586
O	2.634498	1.862872	9.034586
O	3.925309	5.513837	6.798835
O	6.506932	1.862872	6.798835
O	5.711295	4.038495	5.420751
O	0.548050	0.387530	5.420751
O	4.420483	0.387530	3.185001
O	4.420483	0.387530	7.656502
O	1.838861	4.038495	3.185001
K	3.129672	2.213012	5.420751
K	5.216120	3.688354	9.034586
Os	0.000000	0.000000	3.613834
Os	0.000000	0.000000	0.000000
Os	3.129672	0.000000	1.806917
Os	1.043224	2.950683	1.806917
O	3.925309	5.513837	18.498005
O	1.838861	4.038495	14.884170
O	6.506932	1.862872	18.498005
O	7.797743	5.513837	16.262254
O	2.634498	1.862872	16.262254
O	3.925309	5.513837	14.026504
O	6.506932	1.862872	14.026504
O	5.711295	4.038495	12.648420
O	0.548050	0.387530	12.648420
O	4.420483	0.387530	10.412669
O	4.420483	0.387530	14.884170
O	1.838861	4.038495	10.412669
K	3.129672	2.213012	12.648420
K	5.216120	3.688354	16.262254
Os	0.000000	0.000000	10.841503
Os	0.000000	0.000000	7.227669
Os	3.129672	0.000000	9.034586
Os	1.043224	2.950683	9.034586
O	6.011758	11.415203	14.884170
O	3.925309	9.939862	11.270336
O	8.593380	7.764238	14.884170
O	9.884191	11.415203	12.648420
O	4.720946	7.764238	12.648420
O	6.011758	11.415203	10.412669
O	8.593380	7.764238	10.412669
O	7.797743	9.939862	9.034586
O	2.634498	6.288897	9.034586
O	6.506932	6.288897	6.798835
O	6.506932	6.288897	11.270336
O	3.925309	9.939862	6.798835
K	5.216120	8.114379	9.034586
K	7.302569	9.589721	12.648420
Os	2.086448	5.901367	7.227669
Os	2.086448	5.901367	3.613834
Os	5.216120	5.901367	5.420751
Os	3.129672	8.852050	5.420751
O	6.011758	11.415203	22.111839
O	3.925309	9.939862	18.498005
O	8.593380	7.764238	22.111839
O	9.884191	11.415203	19.876088
O	4.720946	7.764238	19.876088
O	6.011758	11.415203	17.640338
O	8.593380	7.764238	17.640338
O	7.797743	9.939862	16.262254
O	2.634498	6.288897	16.262254
O	6.506932	6.288897	14.026504
O	6.506932	6.288897	18.498005
O	3.925309	9.939862	14.026504
K	5.216120	8.114379	16.262254
K	7.302569	9.589721	19.876088
Os	2.086448	5.901367	14.455337
Os	2.086448	5.901367	10.841503
Os	5.216120	5.901367	12.648420
Os	3.129672	8.852050	12.648420
O	10.184654	5.513837	14.884170
O	8.098206	4.038495	11.270336
O	12.766276	1.862872	14.884170
O	14.057087	5.513837	12.648420
O	8.893843	1.862872	12.648420
O	10.184654	5.513837	10.412669
O	12.766276	1.862872	10.412669
O	11.970639	4.038495	9.034586
O	6.807395	0.387530	9.034586
O	10.679828	0.387530	6.798835
O	10.679828	0.387530	11.270336
O	8.098206	4.038495	6.798835
K	9.389017	2.213012	9.034586
K	11.475465	3.688354	12.648420
Os	6.259345	0.000000	7.227669
Os	6.259345	0.000000	3.613834
Os	9.389017	0.000000	5.420751
Os	7.302569	2.950683	5.420751
O	10.184654	5.513837	22.111839
O	8.098206	4.038495	18.498005
O	12.766276	1.862872	22.111839
O	14.057087	5.513837	19.876088
O	8.893843	1.862872	19.876088
O	10.184654	5.513837	17.640338
O	12.766276	1.862872	17.640338
O	11.970639	4.038495	16.262254
O	6.807395	0.387530	16.262254
O	10.679828	0.387530	14.026504
O	10.679828	0.387530	18.498005
O	8.098206	4.038495	14.026504
K	9.389017	2.213012	16.262254
K	11.475465	3.688354	19.876088
Os	6.259345	0.000000	14.455337
Os	6.259345	0.000000	10.841503
Os	9.389017	0.000000	12.648420
Os	7.302569	2.950683	12.648420
O	12.271102	11.415203	18.498005
O	10.184654	9.939862	14.884170
O	14.852724	7.764238	18.498005
O	16.143535	11.415203	16.262254
O	10.980291	7.764238	16.262254
O	12.271102	11.415203	14.026504
O	14.852724	7.764238	14.026504
O	14.057087	9.939862	12.648420
O	8.893843	6.288897	12.648420
O	12.766276	6.288897	10.412669
O	12.766276	6.288897	14.884170
O	10.184654	9.939862	10.412669
K	11.475465	8.114379	12.648420
K	13.561913	9.589721	16.262254
Os	8.345793	5.901367	10.841503
Os	8.345793	5.901367	7.227669
Os	11.475465	5.901367	9.034586
Os	9.389017	8.852050	9.034586
O	12.271102	11.415203	25.725673
O	10.184654	9.939862	22.111839
O	14.852724	7.764238	25.725673
O	16.143535	11.415203	23.489923
O	10.980291	7.764238	23.489923
O	12.271102	11.415203	21.254172
O	14.852724	7.764238	21.254172
O	14.057087	9.939862	19.876088
O	8.893843	6.288897	19.876088
O	12.766276	6.288897	17.640338
O	12.766276	6.288897	22.111839
O	10.184654	9.939862	17.640338
K	11.475465	8.114379	19.876088
K	13.561913	9.589721	23.489923
Os	8.345793	5.901367	18.069171
Os	8.345793	5.901367	14.455337
Os	11.475465	5.901367	16.262254
Os	9.389017	8.852050	16.262254
