40

Cl	0.000000	0.000000	0.000000
O	0.000000	2.826177	2.826177
O	2.826177	0.000000	2.826177
O	2.826177	2.826177	0.000000
Rb	2.826177	2.826177	2.826177
Cl	0.000000	0.000000	5.652354
O	0.000000	2.826177	8.478531
O	2.826177	0.000000	8.478531
O	2.826177	2.826177	5.652354
Rb	2.826177	2.826177	8.478531
Cl	0.000000	5.652354	0.000000
O	0.000000	8.478531	2.826177
O	2.826177	5.652354	2.826177
O	2.826177	8.478531	0.000000
Rb	2.826177	8.478531	2.826177
Cl	0.000000	5.652354	5.652354
O	0.000000	8.478531	8.478531
O	2.826177	5.652354	8.478531
O	2.826177	8.478531	5.652354
Rb	2.826177	8.478531	8.478531
Cl	5.652354	0.000000	0.000000
O	5.652354	2.826177	2.826177
O	8.478531	0.000000	2.826177
O	8.478531	2.826177	0.000000
Rb	8.478531	2.826177	2.826177
Cl	5.652354	0.000000	5.652354
O	5.652354	2.826177	8.478531
O	8.478531	0.000000	8.478531
O	8.478531	2.826177	5.652354
Rb	8.478531	2.826177	8.478531
Cl	5.652354	5.652354	0.000000
O	5.652354	8.478531	2.826177
O	8.478531	5.652354	2.826177
O	8.478531	8.478531	0.000000
Rb	8.478531	8.478531	2.826177
Cl	5.652354	5.652354	5.652354
O	5.652354	8.478531	8.478531
O	8.478531	5.652354	8.478531
O	8.478531	8.478531	5.652354
Rb	8.478531	8.478531	8.478531
