112

Be	0.000000	0.000000	0.000000
Be	2.303520	-2.303206	-2.303206
O	3.386533	-1.220233	-1.220233
O	-1.220507	1.220233	-3.386178
O	1.220507	-1.220233	-3.386178
O	1.083013	1.082972	-1.082972
O	5.827547	1.220233	-1.220233
O	1.083013	3.523439	-3.523439
O	3.524027	3.523439	-1.082972
O	3.524027	1.082972	-3.523439
Pm	-1.151760	-1.151603	-3.454808
Pm	3.455280	1.151603	-1.151603
Pm	5.758800	-1.151603	-1.151603
Pm	1.151760	1.151603	-3.454808
Be	4.607040	4.606411	0.000000
Be	6.910560	2.303206	-2.303206
O	7.993573	3.386178	-1.220233
O	3.386533	5.826644	-3.386178
O	5.827547	3.386178	-3.386178
O	5.690053	5.689383	-1.082972
O	10.434587	5.826644	-1.220233
O	5.690053	8.129850	-3.523439
O	8.131067	8.129850	-1.082972
O	8.131067	5.689383	-3.523439
Pm	3.455280	3.454808	-3.454808
Pm	8.062320	5.758014	-1.151603
Pm	10.365840	3.454808	-1.151603
Pm	5.758800	5.758014	-3.454808
Be	-4.607040	0.000000	-4.606411
Be	-2.303520	-2.303206	-6.909617
O	-1.220507	-1.220233	-5.826644
O	-5.827547	1.220233	-7.992589
O	-3.386533	-1.220233	-7.992589
O	-3.524027	1.082972	-5.689383
O	1.220507	1.220233	-5.826644
O	-3.524027	3.523439	-8.129850
O	-1.083013	3.523439	-5.689383
O	-1.083013	1.082972	-8.129850
Pm	-5.758800	-1.151603	-8.061219
Pm	-1.151760	1.151603	-5.758014
Pm	1.151760	-1.151603	-5.758014
Pm	-3.455280	1.151603	-8.061219
Be	0.000000	4.606411	-4.606411
Be	2.303520	2.303206	-6.909617
O	3.386533	3.386178	-5.826644
O	-1.220507	5.826644	-7.992589
O	1.220507	3.386178	-7.992589
O	1.083013	5.689383	-5.689383
O	5.827547	5.826644	-5.826644
O	1.083013	8.129850	-8.129850
O	3.524027	8.129850	-5.689383
O	3.524027	5.689383	-8.129850
Pm	-1.151760	3.454808	-8.061219
Pm	3.455280	5.758014	-5.758014
Pm	5.758800	3.454808	-5.758014
Pm	1.151760	5.758014	-8.061219
Be	4.607040	-4.606411	0.000000
Be	6.910560	-6.909617	-2.303206
O	7.993573	-5.826644	-1.220233
O	3.386533	-3.386178	-3.386178
O	5.827547	-5.826644	-3.386178
O	5.690053	-3.523439	-1.082972
O	10.434587	-3.386178	-1.220233
O	5.690053	-1.082972	-3.523439
O	8.131067	-1.082972	-1.082972
O	8.131067	-3.523439	-3.523439
Pm	3.455280	-5.758014	-3.454808
Pm	8.062320	-3.454808	-1.151603
Pm	10.365840	-5.758014	-1.151603
Pm	5.758800	-3.454808	-3.454808
Be	9.214080	0.000000	0.000000
Be	11.517600	-2.303206	-2.303206
O	12.600613	-1.220233	-1.220233
O	7.993573	1.220233	-3.386178
O	10.434587	-1.220233	-3.386178
O	10.297093	1.082972	-1.082972
O	15.041627	1.220233	-1.220233
O	10.297093	3.523439	-3.523439
O	12.738107	3.523439	-1.082972
O	12.738107	1.082972	-3.523439
Pm	8.062320	-1.151603	-3.454808
Pm	12.669360	1.151603	-1.151603
Pm	14.972880	-1.151603	-1.151603
Pm	10.365840	1.151603	-3.454808
Be	0.000000	-4.606411	-4.606411
Be	2.303520	-6.909617	-6.909617
O	3.386533	-5.826644	-5.826644
O	-1.220507	-3.386178	-7.992589
O	1.220507	-5.826644	-7.992589
O	1.083013	-3.523439	-5.689383
O	5.827547	-3.386178	-5.826644
O	1.083013	-1.082972	-8.129850
O	3.524027	-1.082972	-5.689383
O	3.524027	-3.523439	-8.129850
Pm	-1.151760	-5.758014	-8.061219
Pm	3.455280	-3.454808	-5.758014
Pm	5.758800	-5.758014	-5.758014
Pm	1.151760	-3.454808	-8.061219
Be	4.607040	0.000000	-4.606411
Be	6.910560	-2.303206	-6.909617
O	7.993573	-1.220233	-5.826644
O	3.386533	1.220233	-7.992589
O	5.827547	-1.220233	-7.992589
O	5.690053	1.082972	-5.689383
O	10.434587	1.220233	-5.826644
O	5.690053	3.523439	-8.129850
O	8.131067	3.523439	-5.689383
O	8.131067	1.082972	-8.129850
Pm	3.455280	-1.151603	-8.061219
Pm	8.062320	1.151603	-5.758014
Pm	10.365840	-1.151603	-5.758014
Pm	5.758800	1.151603	-8.061219
