40

Nb	2.027244	2.027244	2.027244
O	0.000000	2.027244	2.027244
O	2.027244	0.000000	2.027244
O	2.027244	2.027244	0.000000
Se	0.000000	0.000000	0.000000
Nb	2.027244	2.027244	6.081732
O	0.000000	2.027244	6.081732
O	2.027244	0.000000	6.081732
O	2.027244	2.027244	4.054488
Se	0.000000	0.000000	4.054488
Nb	2.027244	6.081732	2.027244
O	0.000000	6.081732	2.027244
O	2.027244	4.054488	2.027244
O	2.027244	6.081732	0.000000
Se	0.000000	4.054488	0.000000
Nb	2.027244	6.081732	6.081732
O	0.000000	6.081732	6.081732
O	2.027244	4.054488	6.081732
O	2.027244	6.081732	4.054488
Se	0.000000	4.054488	4.054488
Nb	6.081732	2.027244	2.027244
O	4.054488	2.027244	2.027244
O	6.081732	0.000000	2.027244
O	6.081732	2.027244	0.000000
Se	4.054488	0.000000	0.000000
Nb	6.081732	2.027244	6.081732
O	4.054488	2.027244	6.081732
O	6.081732	0.000000	6.081732
O	6.081732	2.027244	4.054488
Se	4.054488	0.000000	4.054488
Nb	6.081732	6.081732	2.027244
O	4.054488	6.081732	2.027244
O	6.081732	4.054488	2.027244
O	6.081732	6.081732	0.000000
Se	4.054488	4.054488	0.000000
Nb	6.081732	6.081732	6.081732
O	4.054488	6.081732	6.081732
O	6.081732	4.054488	6.081732
O	6.081732	6.081732	4.054488
Se	4.054488	4.054488	4.054488
