40

B	1.693780	1.693780	1.693780
O	1.693780	1.693780	0.000000
O	0.000000	1.693780	1.693780
O	1.693780	0.000000	1.693780
Ta	0.000000	0.000000	0.000000
B	1.693780	1.693780	5.081325
O	1.693780	1.693780	3.387545
O	0.000000	1.693780	5.081325
O	1.693780	0.000000	5.081325
Ta	0.000000	0.000000	3.387545
B	1.693780	5.081325	1.693780
O	1.693780	5.081325	0.000000
O	0.000000	5.081325	1.693780
O	1.693780	3.387545	1.693780
Ta	0.000000	3.387545	0.000000
B	1.693780	5.081325	5.081325
O	1.693780	5.081325	3.387545
O	0.000000	5.081325	5.081325
O	1.693780	3.387545	5.081325
Ta	0.000000	3.387545	3.387545
B	5.081325	1.693780	1.693780
O	5.081325	1.693780	0.000000
O	3.387545	1.693780	1.693780
O	5.081325	0.000000	1.693780
Ta	3.387545	0.000000	0.000000
B	5.081325	1.693780	5.081325
O	5.081325	1.693780	3.387545
O	3.387545	1.693780	5.081325
O	5.081325	0.000000	5.081325
Ta	3.387545	0.000000	3.387545
B	5.081325	5.081325	1.693780
O	5.081325	5.081325	0.000000
O	3.387545	5.081325	1.693780
O	5.081325	3.387545	1.693780
Ta	3.387545	3.387545	0.000000
B	5.081325	5.081325	5.081325
O	5.081325	5.081325	3.387545
O	3.387545	5.081325	5.081325
O	5.081325	3.387545	5.081325
Ta	3.387545	3.387545	3.387545
