112

O	3.676498	-1.097562	-1.097562
O	-1.097778	1.097562	-3.678034
O	1.097778	-1.097562	-3.678034
O	1.289360	1.290236	-1.290236
O	5.872054	1.097562	-1.097562
O	1.289360	3.485360	-3.485360
O	3.484916	3.485360	-1.290236
O	3.484916	1.290236	-3.485360
Re	0.000000	0.000000	0.000000
Re	2.387138	-2.387798	-2.387798
Tb	-1.193569	-1.193899	-3.581697
Tb	3.580707	1.193899	-1.193899
Tb	5.967845	-1.193899	-1.193899
Tb	1.193569	1.193899	-3.581697
O	8.450775	3.678034	-1.097562
O	3.676498	5.873158	-3.678034
O	5.872054	3.678034	-3.678034
O	6.063637	6.065831	-1.290236
O	10.646331	5.873158	-1.097562
O	6.063637	8.260956	-3.485360
O	8.259193	8.260956	-1.290236
O	8.259193	6.065831	-3.485360
Re	4.774276	4.775596	0.000000
Re	7.161415	2.387798	-2.387798
Tb	3.580707	3.581697	-3.581697
Tb	8.354984	5.969495	-1.193899
Tb	10.742122	3.581697	-1.193899
Tb	5.967845	5.969495	-3.581697
O	-1.097778	-1.097562	-5.873158
O	-5.872054	1.097562	-8.453629
O	-3.676498	-1.097562	-8.453629
O	-3.484916	1.290236	-6.065831
O	1.097778	1.097562	-5.873158
O	-3.484916	3.485360	-8.260956
O	-1.289360	3.485360	-6.065831
O	-1.289360	1.290236	-8.260956
Re	-4.774276	0.000000	-4.775596
Re	-2.387138	-2.387798	-7.163394
Tb	-5.967845	-1.193899	-8.357293
Tb	-1.193569	1.193899	-5.969495
Tb	1.193569	-1.193899	-5.969495
Tb	-3.580707	1.193899	-8.357293
O	3.676498	3.678034	-5.873158
O	-1.097778	5.873158	-8.453629
O	1.097778	3.678034	-8.453629
O	1.289360	6.065831	-6.065831
O	5.872054	5.873158	-5.873158
O	1.289360	8.260956	-8.260956
O	3.484916	8.260956	-6.065831
O	3.484916	6.065831	-8.260956
Re	0.000000	4.775596	-4.775596
Re	2.387138	2.387798	-7.163394
Tb	-1.193569	3.581697	-8.357293
Tb	3.580707	5.969495	-5.969495
Tb	5.967845	3.581697	-5.969495
Tb	1.193569	5.969495	-8.357293
O	8.450775	-5.873158	-1.097562
O	3.676498	-3.678034	-3.678034
O	5.872054	-5.873158	-3.678034
O	6.063637	-3.485360	-1.290236
O	10.646331	-3.678034	-1.097562
O	6.063637	-1.290236	-3.485360
O	8.259193	-1.290236	-1.290236
O	8.259193	-3.485360	-3.485360
Re	4.774276	-4.775596	0.000000
Re	7.161415	-7.163394	-2.387798
Tb	3.580707	-5.969495	-3.581697
Tb	8.354984	-3.581697	-1.193899
Tb	10.742122	-5.969495	-1.193899
Tb	5.967845	-3.581697	-3.581697
O	13.225051	-1.097562	-1.097562
O	8.450775	1.097562	-3.678034
O	10.646331	-1.097562	-3.678034
O	10.837913	1.290236	-1.290236
O	15.420607	1.097562	-1.097562
O	10.837913	3.485360	-3.485360
O	13.033469	3.485360	-1.290236
O	13.033469	1.290236	-3.485360
Re	9.548553	0.000000	0.000000
Re	11.935691	-2.387798	-2.387798
Tb	8.354984	-1.193899	-3.581697
Tb	13.129260	1.193899	-1.193899
Tb	15.516398	-1.193899	-1.193899
Tb	10.742122	1.193899	-3.581697
O	3.676498	-5.873158	-5.873158
O	-1.097778	-3.678034	-8.453629
O	1.097778	-5.873158	-8.453629
O	1.289360	-3.485360	-6.065831
O	5.872054	-3.678034	-5.873158
O	1.289360	-1.290236	-8.260956
O	3.484916	-1.290236	-6.065831
O	3.484916	-3.485360	-8.260956
Re	0.000000	-4.775596	-4.775596
Re	2.387138	-7.163394	-7.163394
Tb	-1.193569	-5.969495	-8.357293
Tb	3.580707	-3.581697	-5.969495
Tb	5.967845	-5.969495	-5.969495
Tb	1.193569	-3.581697	-8.357293
O	8.450775	-1.097562	-5.873158
O	3.676498	1.097562	-8.453629
O	5.872054	-1.097562	-8.453629
O	6.063637	1.290236	-6.065831
O	10.646331	1.097562	-5.873158
O	6.063637	3.485360	-8.260956
O	8.259193	3.485360	-6.065831
O	8.259193	1.290236	-8.260956
Re	4.774276	0.000000	-4.775596
Re	7.161415	-2.387798	-7.163394
Tb	3.580707	-1.193899	-8.357293
Tb	8.354984	1.193899	-5.969495
Tb	10.742122	-1.193899	-5.969495
Tb	5.967845	1.193899	-8.357293
