40

O	0.000000	2.162331	2.162331
O	2.162331	0.000000	2.162331
O	2.162331	2.162331	0.000000
Os	0.000000	0.000000	0.000000
Y	2.162331	2.162331	2.162331
O	0.000000	2.162331	6.486994
O	2.162331	0.000000	6.486994
O	2.162331	2.162331	4.324663
Os	0.000000	0.000000	4.324663
Y	2.162331	2.162331	6.486994
O	0.000000	6.486994	2.162331
O	2.162331	4.324663	2.162331
O	2.162331	6.486994	0.000000
Os	0.000000	4.324663	0.000000
Y	2.162331	6.486994	2.162331
O	0.000000	6.486994	6.486994
O	2.162331	4.324663	6.486994
O	2.162331	6.486994	4.324663
Os	0.000000	4.324663	4.324663
Y	2.162331	6.486994	6.486994
O	4.324663	2.162331	2.162331
O	6.486994	0.000000	2.162331
O	6.486994	2.162331	0.000000
Os	4.324663	0.000000	0.000000
Y	6.486994	2.162331	2.162331
O	4.324663	2.162331	6.486994
O	6.486994	0.000000	6.486994
O	6.486994	2.162331	4.324663
Os	4.324663	0.000000	4.324663
Y	6.486994	2.162331	6.486994
O	4.324663	6.486994	2.162331
O	6.486994	4.324663	2.162331
O	6.486994	6.486994	0.000000
Os	4.324663	4.324663	0.000000
Y	6.486994	6.486994	2.162331
O	4.324663	6.486994	6.486994
O	6.486994	4.324663	6.486994
O	6.486994	6.486994	4.324663
Os	4.324663	4.324663	4.324663
Y	6.486994	6.486994	6.486994
