40

O	0.000000	1.989755	1.989755
O	1.989755	0.000000	1.989755
O	1.989755	1.989755	0.000000
Os	1.989755	1.989755	1.989755
Y	0.000000	0.000000	0.000000
O	0.000000	1.989755	5.969266
O	1.989755	0.000000	5.969266
O	1.989755	1.989755	3.979511
Os	1.989755	1.989755	5.969266
Y	0.000000	0.000000	3.979511
O	0.000000	5.969266	1.989755
O	1.989755	3.979511	1.989755
O	1.989755	5.969266	0.000000
Os	1.989755	5.969266	1.989755
Y	0.000000	3.979511	0.000000
O	0.000000	5.969266	5.969266
O	1.989755	3.979511	5.969266
O	1.989755	5.969266	3.979511
Os	1.989755	5.969266	5.969266
Y	0.000000	3.979511	3.979511
O	3.979511	1.989755	1.989755
O	5.969266	0.000000	1.989755
O	5.969266	1.989755	0.000000
Os	5.969266	1.989755	1.989755
Y	3.979511	0.000000	0.000000
O	3.979511	1.989755	5.969266
O	5.969266	0.000000	5.969266
O	5.969266	1.989755	3.979511
Os	5.969266	1.989755	5.969266
Y	3.979511	0.000000	3.979511
O	3.979511	5.969266	1.989755
O	5.969266	3.979511	1.989755
O	5.969266	5.969266	0.000000
Os	5.969266	5.969266	1.989755
Y	3.979511	3.979511	0.000000
O	3.979511	5.969266	5.969266
O	5.969266	3.979511	5.969266
O	5.969266	5.969266	3.979511
Os	5.969266	5.969266	5.969266
Y	3.979511	3.979511	3.979511
