40

O	2.117510	2.117510	0.000000
O	0.000000	2.117510	2.117510
O	2.117510	0.000000	2.117510
Y_sv	2.117510	2.117510	2.117510
Zr_sv	0.000000	0.000000	0.000000
O	2.117510	2.117510	4.235032
O	0.000000	2.117510	6.352542
O	2.117510	0.000000	6.352542
Y_sv	2.117510	2.117510	6.352542
Zr_sv	0.000000	0.000000	4.235032
O	2.117510	6.352542	0.000000
O	0.000000	6.352542	2.117510
O	2.117510	4.235032	2.117510
Y_sv	2.117510	6.352542	2.117510
Zr_sv	0.000000	4.235032	0.000000
O	2.117510	6.352542	4.235032
O	0.000000	6.352542	6.352542
O	2.117510	4.235032	6.352542
Y_sv	2.117510	6.352542	6.352542
Zr_sv	0.000000	4.235032	4.235032
O	6.352542	2.117510	0.000000
O	4.235032	2.117510	2.117510
O	6.352542	0.000000	2.117510
Y_sv	6.352542	2.117510	2.117510
Zr_sv	4.235032	0.000000	0.000000
O	6.352542	2.117510	4.235032
O	4.235032	2.117510	6.352542
O	6.352542	0.000000	6.352542
Y_sv	6.352542	2.117510	6.352542
Zr_sv	4.235032	0.000000	4.235032
O	6.352542	6.352542	0.000000
O	4.235032	6.352542	2.117510
O	6.352542	4.235032	2.117510
Y_sv	6.352542	6.352542	2.117510
Zr_sv	4.235032	4.235032	0.000000
O	6.352542	6.352542	4.235032
O	4.235032	6.352542	6.352542
O	6.352542	4.235032	6.352542
Y_sv	6.352542	6.352542	6.352542
Zr_sv	4.235032	4.235032	4.235032
