40

O	2.139036	2.139036	0.000000
O	2.139036	0.000000	2.139036
O	0.000000	2.139036	2.139036
Y	2.139036	2.139036	2.139036
Zr	0.000000	0.000000	0.000000
O	2.139036	2.139036	4.278072
O	2.139036	0.000000	6.417108
O	0.000000	2.139036	6.417108
Y	2.139036	2.139036	6.417108
Zr	0.000000	0.000000	4.278072
O	2.139036	6.417108	0.000000
O	2.139036	4.278072	2.139036
O	0.000000	6.417108	2.139036
Y	2.139036	6.417108	2.139036
Zr	0.000000	4.278072	0.000000
O	2.139036	6.417108	4.278072
O	2.139036	4.278072	6.417108
O	0.000000	6.417108	6.417108
Y	2.139036	6.417108	6.417108
Zr	0.000000	4.278072	4.278072
O	6.417108	2.139036	0.000000
O	6.417108	0.000000	2.139036
O	4.278072	2.139036	2.139036
Y	6.417108	2.139036	2.139036
Zr	4.278072	0.000000	0.000000
O	6.417108	2.139036	4.278072
O	6.417108	0.000000	6.417108
O	4.278072	2.139036	6.417108
Y	6.417108	2.139036	6.417108
Zr	4.278072	0.000000	4.278072
O	6.417108	6.417108	0.000000
O	6.417108	4.278072	2.139036
O	4.278072	6.417108	2.139036
Y	6.417108	6.417108	2.139036
Zr	4.278072	4.278072	0.000000
O	6.417108	6.417108	4.278072
O	6.417108	4.278072	6.417108
O	4.278072	6.417108	6.417108
Y	6.417108	6.417108	6.417108
Zr	4.278072	4.278072	4.278072
