40

O	0.000000	2.077583	2.077583
O	2.077583	0.000000	2.077583
O	2.077583	2.077583	0.000000
Y	0.000000	0.000000	0.000000
Zr	2.077583	2.077583	2.077583
O	0.000000	2.077583	6.232748
O	2.077583	0.000000	6.232748
O	2.077583	2.077583	4.155165
Y	0.000000	0.000000	4.155165
Zr	2.077583	2.077583	6.232748
O	0.000000	6.232748	2.077583
O	2.077583	4.155165	2.077583
O	2.077583	6.232748	0.000000
Y	0.000000	4.155165	0.000000
Zr	2.077583	6.232748	2.077583
O	0.000000	6.232748	6.232748
O	2.077583	4.155165	6.232748
O	2.077583	6.232748	4.155165
Y	0.000000	4.155165	4.155165
Zr	2.077583	6.232748	6.232748
O	4.155165	2.077583	2.077583
O	6.232748	0.000000	2.077583
O	6.232748	2.077583	0.000000
Y	4.155165	0.000000	0.000000
Zr	6.232748	2.077583	2.077583
O	4.155165	2.077583	6.232748
O	6.232748	0.000000	6.232748
O	6.232748	2.077583	4.155165
Y	4.155165	0.000000	4.155165
Zr	6.232748	2.077583	6.232748
O	4.155165	6.232748	2.077583
O	6.232748	4.155165	2.077583
O	6.232748	6.232748	0.000000
Y	4.155165	4.155165	0.000000
Zr	6.232748	6.232748	2.077583
O	4.155165	6.232748	6.232748
O	6.232748	4.155165	6.232748
O	6.232748	6.232748	4.155165
Y	4.155165	4.155165	4.155165
Zr	6.232748	6.232748	6.232748
