40

O	2.221330	2.221330	0.000000
O	0.000000	2.221330	2.221330
O	2.221330	0.000000	2.221330
Pr_3	2.221330	2.221330	2.221330
Ru	0.000000	0.000000	0.000000
O	2.221330	2.221330	4.442654
O	0.000000	2.221330	6.663984
O	2.221330	0.000000	6.663984
Pr_3	2.221330	2.221330	6.663984
Ru	0.000000	0.000000	4.442654
O	2.221330	6.663984	0.000000
O	0.000000	6.663984	2.221330
O	2.221330	4.442654	2.221330
Pr_3	2.221330	6.663984	2.221330
Ru	0.000000	4.442654	0.000000
O	2.221330	6.663984	4.442654
O	0.000000	6.663984	6.663984
O	2.221330	4.442654	6.663984
Pr_3	2.221330	6.663984	6.663984
Ru	0.000000	4.442654	4.442654
O	6.663984	2.221330	0.000000
O	4.442654	2.221330	2.221330
O	6.663984	0.000000	2.221330
Pr_3	6.663984	2.221330	2.221330
Ru	4.442654	0.000000	0.000000
O	6.663984	2.221330	4.442654
O	4.442654	2.221330	6.663984
O	6.663984	0.000000	6.663984
Pr_3	6.663984	2.221330	6.663984
Ru	4.442654	0.000000	4.442654
O	6.663984	6.663984	0.000000
O	4.442654	6.663984	2.221330
O	6.663984	4.442654	2.221330
Pr_3	6.663984	6.663984	2.221330
Ru	4.442654	4.442654	0.000000
O	6.663984	6.663984	4.442654
O	4.442654	6.663984	6.663984
O	6.663984	4.442654	6.663984
Pr_3	6.663984	6.663984	6.663984
Ru	4.442654	4.442654	4.442654
