40

Ac	0.000000	0.000000	0.000000
Mo	2.043317	2.043317	2.043317
O	2.043317	2.043317	0.000000
O	2.043317	0.000000	2.043317
O	0.000000	2.043317	2.043317
Ac	0.000000	0.000000	4.086635
Mo	2.043317	2.043317	6.129952
O	2.043317	2.043317	4.086635
O	2.043317	0.000000	6.129952
O	0.000000	2.043317	6.129952
Ac	0.000000	4.086635	0.000000
Mo	2.043317	6.129952	2.043317
O	2.043317	6.129952	0.000000
O	2.043317	4.086635	2.043317
O	0.000000	6.129952	2.043317
Ac	0.000000	4.086635	4.086635
Mo	2.043317	6.129952	6.129952
O	2.043317	6.129952	4.086635
O	2.043317	4.086635	6.129952
O	0.000000	6.129952	6.129952
Ac	4.086635	0.000000	0.000000
Mo	6.129952	2.043317	2.043317
O	6.129952	2.043317	0.000000
O	6.129952	0.000000	2.043317
O	4.086635	2.043317	2.043317
Ac	4.086635	0.000000	4.086635
Mo	6.129952	2.043317	6.129952
O	6.129952	2.043317	4.086635
O	6.129952	0.000000	6.129952
O	4.086635	2.043317	6.129952
Ac	4.086635	4.086635	0.000000
Mo	6.129952	6.129952	2.043317
O	6.129952	6.129952	0.000000
O	6.129952	4.086635	2.043317
O	4.086635	6.129952	2.043317
Ac	4.086635	4.086635	4.086635
Mo	6.129952	6.129952	6.129952
O	6.129952	6.129952	4.086635
O	6.129952	4.086635	6.129952
O	4.086635	6.129952	6.129952
