40

O	1.958770	1.958770	0.000000
O	0.000000	1.958770	1.958770
O	1.958770	0.000000	1.958770
Os	1.958770	1.958770	1.958770
Th	0.000000	0.000000	0.000000
O	1.958770	1.958770	3.917524
O	0.000000	1.958770	5.876293
O	1.958770	0.000000	5.876293
Os	1.958770	1.958770	5.876293
Th	0.000000	0.000000	3.917524
O	1.958770	5.876293	0.000000
O	0.000000	5.876293	1.958770
O	1.958770	3.917524	1.958770
Os	1.958770	5.876293	1.958770
Th	0.000000	3.917524	0.000000
O	1.958770	5.876293	3.917524
O	0.000000	5.876293	5.876293
O	1.958770	3.917524	5.876293
Os	1.958770	5.876293	5.876293
Th	0.000000	3.917524	3.917524
O	5.876293	1.958770	0.000000
O	3.917524	1.958770	1.958770
O	5.876293	0.000000	1.958770
Os	5.876293	1.958770	1.958770
Th	3.917524	0.000000	0.000000
O	5.876293	1.958770	3.917524
O	3.917524	1.958770	5.876293
O	5.876293	0.000000	5.876293
Os	5.876293	1.958770	5.876293
Th	3.917524	0.000000	3.917524
O	5.876293	5.876293	0.000000
O	3.917524	5.876293	1.958770
O	5.876293	3.917524	1.958770
Os	5.876293	5.876293	1.958770
Th	3.917524	3.917524	0.000000
O	5.876293	5.876293	3.917524
O	3.917524	5.876293	5.876293
O	5.876293	3.917524	5.876293
Os	5.876293	5.876293	5.876293
Th	3.917524	3.917524	3.917524
