40

O	1.844468	1.844468	0.000000
O	1.844468	0.000000	1.844468
O	0.000000	1.844468	1.844468
Si	1.844468	1.844468	1.844468
Tm	0.000000	0.000000	0.000000
O	1.844468	1.844468	3.688936
O	1.844468	0.000000	5.533403
O	0.000000	1.844468	5.533403
Si	1.844468	1.844468	5.533403
Tm	0.000000	0.000000	3.688936
O	1.844468	5.533403	0.000000
O	1.844468	3.688936	1.844468
O	0.000000	5.533403	1.844468
Si	1.844468	5.533403	1.844468
Tm	0.000000	3.688936	0.000000
O	1.844468	5.533403	3.688936
O	1.844468	3.688936	5.533403
O	0.000000	5.533403	5.533403
Si	1.844468	5.533403	5.533403
Tm	0.000000	3.688936	3.688936
O	5.533403	1.844468	0.000000
O	5.533403	0.000000	1.844468
O	3.688936	1.844468	1.844468
Si	5.533403	1.844468	1.844468
Tm	3.688936	0.000000	0.000000
O	5.533403	1.844468	3.688936
O	5.533403	0.000000	5.533403
O	3.688936	1.844468	5.533403
Si	5.533403	1.844468	5.533403
Tm	3.688936	0.000000	3.688936
O	5.533403	5.533403	0.000000
O	5.533403	3.688936	1.844468
O	3.688936	5.533403	1.844468
Si	5.533403	5.533403	1.844468
Tm	3.688936	3.688936	0.000000
O	5.533403	5.533403	3.688936
O	5.533403	3.688936	5.533403
O	3.688936	5.533403	5.533403
Si	5.533403	5.533403	5.533403
Tm	3.688936	3.688936	3.688936
