40

As	0.000000	0.000000	0.000000
C	1.742534	1.742534	1.742534
O	0.000000	1.742534	1.742534
O	1.742534	0.000000	1.742534
O	1.742534	1.742534	0.000000
As	0.000000	0.000000	3.485067
C	1.742534	1.742534	5.227601
O	0.000000	1.742534	5.227601
O	1.742534	0.000000	5.227601
O	1.742534	1.742534	3.485067
As	0.000000	3.485067	0.000000
C	1.742534	5.227601	1.742534
O	0.000000	5.227601	1.742534
O	1.742534	3.485067	1.742534
O	1.742534	5.227601	0.000000
As	0.000000	3.485067	3.485067
C	1.742534	5.227601	5.227601
O	0.000000	5.227601	5.227601
O	1.742534	3.485067	5.227601
O	1.742534	5.227601	3.485067
As	3.485067	0.000000	0.000000
C	5.227601	1.742534	1.742534
O	3.485067	1.742534	1.742534
O	5.227601	0.000000	1.742534
O	5.227601	1.742534	0.000000
As	3.485067	0.000000	3.485067
C	5.227601	1.742534	5.227601
O	3.485067	1.742534	5.227601
O	5.227601	0.000000	5.227601
O	5.227601	1.742534	3.485067
As	3.485067	3.485067	0.000000
C	5.227601	5.227601	1.742534
O	3.485067	5.227601	1.742534
O	5.227601	3.485067	1.742534
O	5.227601	5.227601	0.000000
As	3.485067	3.485067	3.485067
C	5.227601	5.227601	5.227601
O	3.485067	5.227601	5.227601
O	5.227601	3.485067	5.227601
O	5.227601	5.227601	3.485067
