40

Ho	0.000000	0.000000	0.000000
O	1.916468	1.916468	0.000000
O	1.916468	0.000000	1.916468
O	0.000000	1.916468	1.916468
Zn	1.916468	1.916468	1.916468
Ho	0.000000	0.000000	3.832936
O	1.916468	1.916468	3.832936
O	1.916468	0.000000	5.749404
O	0.000000	1.916468	5.749404
Zn	1.916468	1.916468	5.749404
Ho	0.000000	3.832936	0.000000
O	1.916468	5.749404	0.000000
O	1.916468	3.832936	1.916468
O	0.000000	5.749404	1.916468
Zn	1.916468	5.749404	1.916468
Ho	0.000000	3.832936	3.832936
O	1.916468	5.749404	3.832936
O	1.916468	3.832936	5.749404
O	0.000000	5.749404	5.749404
Zn	1.916468	5.749404	5.749404
Ho	3.832936	0.000000	0.000000
O	5.749404	1.916468	0.000000
O	5.749404	0.000000	1.916468
O	3.832936	1.916468	1.916468
Zn	5.749404	1.916468	1.916468
Ho	3.832936	0.000000	3.832936
O	5.749404	1.916468	3.832936
O	5.749404	0.000000	5.749404
O	3.832936	1.916468	5.749404
Zn	5.749404	1.916468	5.749404
Ho	3.832936	3.832936	0.000000
O	5.749404	5.749404	0.000000
O	5.749404	3.832936	1.916468
O	3.832936	5.749404	1.916468
Zn	5.749404	5.749404	1.916468
Ho	3.832936	3.832936	3.832936
O	5.749404	5.749404	3.832936
O	5.749404	3.832936	5.749404
O	3.832936	5.749404	5.749404
Zn	5.749404	5.749404	5.749404
