112

Ga	0.000000	0.000000	0.000000
Ga	2.133883	-2.134821	-2.134821
O	1.059721	1.060377	-1.060377
O	-1.074153	1.074444	-3.195197
O	3.193604	-1.074444	-1.074444
O	1.074153	-1.074444	-3.195197
O	1.059721	3.209265	-3.209265
O	3.208036	1.060377	-3.209265
O	3.208036	3.209265	-1.060377
O	5.341909	1.074444	-1.074444
Re	-1.066942	-1.067415	-3.202236
Re	5.334698	-1.067415	-1.067415
Re	3.200815	1.067415	-1.067415
Re	1.066942	1.067415	-3.202236
Ga	4.267756	4.269643	0.000000
Ga	6.401639	2.134822	-2.134821
O	5.327477	5.330019	-1.060377
O	3.193604	5.344087	-3.195197
O	7.461360	3.195199	-1.074444
O	5.341909	3.195199	-3.195197
O	5.327477	7.478907	-3.209265
O	7.475792	5.330019	-3.209265
O	7.475792	7.478907	-1.060377
O	9.609665	5.344087	-1.074444
Re	3.200815	3.202227	-3.202236
Re	9.602454	3.202227	-1.067415
Re	7.468571	5.337058	-1.067415
Re	5.334698	5.337058	-3.202236
Ga	-4.267756	0.000000	-4.269643
Ga	-2.133873	-2.134821	-6.404463
O	-3.208036	1.060377	-5.330019
O	-5.341909	1.074444	-7.464840
O	-1.074153	-1.074444	-5.344087
O	-3.193604	-1.074444	-7.464840
O	-3.208036	3.209265	-7.478907
O	-1.059721	1.060377	-7.478907
O	-1.059721	3.209265	-5.330019
O	1.074152	1.074444	-5.344087
Re	-5.334698	-1.067415	-7.471879
Re	1.066941	-1.067415	-5.337058
Re	-1.066942	1.067415	-5.337058
Re	-3.200815	1.067415	-7.471879
Ga	0.000000	4.269643	-4.269643
Ga	2.133883	2.134822	-6.404463
O	1.059721	5.330019	-5.330019
O	-1.074153	5.344087	-7.464840
O	3.193604	3.195199	-5.344087
O	1.074153	3.195199	-7.464840
O	1.059721	7.478907	-7.478907
O	3.208036	5.330019	-7.478907
O	3.208036	7.478907	-5.330019
O	5.341909	5.344087	-5.344087
Re	-1.066942	3.202227	-7.471879
Re	5.334698	3.202227	-5.337058
Re	3.200815	5.337058	-5.337058
Re	1.066942	5.337058	-7.471879
Ga	4.267756	-4.269643	0.000000
Ga	6.401639	-6.404463	-2.134821
O	5.327477	-3.209266	-1.060377
O	3.193604	-3.195199	-3.195197
O	7.461360	-5.344087	-1.074444
O	5.341909	-5.344087	-3.195197
O	5.327477	-1.060378	-3.209265
O	7.475792	-3.209266	-3.209265
O	7.475792	-1.060378	-1.060377
O	9.609665	-3.195199	-1.074444
Re	3.200815	-5.337058	-3.202236
Re	9.602454	-5.337058	-1.067415
Re	7.468571	-3.202227	-1.067415
Re	5.334698	-3.202227	-3.202236
Ga	8.535513	0.000000	0.000000
Ga	10.669396	-2.134821	-2.134821
O	9.595233	1.060377	-1.060377
O	7.461360	1.074444	-3.195197
O	11.729116	-1.074444	-1.074444
O	9.609665	-1.074444	-3.195197
O	9.595233	3.209265	-3.209265
O	11.743548	1.060377	-3.209265
O	11.743548	3.209265	-1.060377
O	13.877421	1.074444	-1.074444
Re	7.468571	-1.067415	-3.202236
Re	13.870210	-1.067415	-1.067415
Re	11.736327	1.067415	-1.067415
Re	9.602454	1.067415	-3.202236
Ga	0.000000	-4.269643	-4.269643
Ga	2.133883	-6.404463	-6.404463
O	1.059721	-3.209266	-5.330019
O	-1.074153	-3.195199	-7.464840
O	3.193604	-5.344087	-5.344087
O	1.074153	-5.344087	-7.464840
O	1.059721	-1.060378	-7.478907
O	3.208036	-3.209266	-7.478907
O	3.208036	-1.060378	-5.330019
O	5.341909	-3.195199	-5.344087
Re	-1.066942	-5.337058	-7.471879
Re	5.334698	-5.337058	-5.337058
Re	3.200815	-3.202227	-5.337058
Re	1.066942	-3.202227	-7.471879
Ga	4.267756	0.000000	-4.269643
Ga	6.401639	-2.134821	-6.404463
O	5.327477	1.060377	-5.330019
O	3.193604	1.074444	-7.464840
O	7.461360	-1.074444	-5.344087
O	5.341909	-1.074444	-7.464840
O	5.327477	3.209265	-7.478907
O	7.475792	1.060377	-7.478907
O	7.475792	3.209265	-5.330019
O	9.609665	1.074444	-5.344087
Re	3.200815	-1.067415	-7.471879
Re	9.602454	-1.067415	-5.337058
Re	7.468571	1.067415	-5.337058
Re	5.334698	1.067415	-7.471879
