112

O	-0.830393	0.830302	-3.297328
O	3.296709	-0.830302	-0.830302
O	0.830393	-0.830302	-3.297328
O	1.233153	1.233518	-1.233518
O	4.957494	0.830302	-0.830302
O	1.233153	2.894122	-2.894122
O	2.893948	2.894122	-1.233518
O	2.893948	1.233518	-2.894122
Rh	0.000000	0.000000	0.000000
Rh	2.063546	-2.063820	-2.063820
Si	-1.031773	-1.031910	-3.095720
Si	1.031773	1.031910	-3.095720
Si	5.158874	-1.031910	-1.031910
Si	3.095329	1.031910	-1.031910
O	3.296707	4.957935	-3.297328
O	7.423808	3.297331	-0.830302
O	4.957493	3.297331	-3.297328
O	5.360253	5.361151	-1.233518
O	9.084594	4.957935	-0.830302
O	5.360253	7.021755	-2.894122
O	7.021048	7.021755	-1.233518
O	7.021048	5.361151	-2.894122
Rh	4.127100	4.127633	0.000000
Rh	6.190645	2.063813	-2.063820
Si	3.095327	3.095723	-3.095720
Si	5.158873	5.159543	-3.095720
Si	9.285974	3.095723	-1.031910
Si	7.222428	5.159543	-1.031910
O	-4.957493	0.830302	-7.424961
O	-0.830391	-0.830302	-4.957935
O	-3.296707	-0.830302	-7.424961
O	-2.893947	1.233518	-5.361151
O	0.830394	0.830302	-4.957935
O	-2.893947	2.894122	-7.021755
O	-1.233151	2.894122	-5.361151
O	-1.233151	1.233518	-7.021755
Rh	-4.127100	0.000000	-4.127633
Rh	-2.063554	-2.063820	-6.191453
Si	-5.158873	-1.031910	-7.223353
Si	-3.095327	1.031910	-7.223353
Si	1.031775	-1.031910	-5.159543
Si	-1.031771	1.031910	-5.159543
O	-0.830393	4.957935	-7.424961
O	3.296709	3.297331	-4.957935
O	0.830393	3.297331	-7.424961
O	1.233153	5.361151	-5.361151
O	4.957494	4.957935	-4.957935
O	1.233153	7.021755	-7.021755
O	2.893948	7.021755	-5.361151
O	2.893948	5.361151	-7.021755
Rh	0.000000	4.127633	-4.127633
Rh	2.063546	2.063813	-6.191453
Si	-1.031773	3.095723	-7.223353
Si	1.031773	5.159543	-7.223353
Si	5.158874	3.095723	-5.159543
Si	3.095329	5.159543	-5.159543
O	3.296707	-3.297331	-3.297328
O	7.423808	-4.957935	-0.830302
O	4.957493	-4.957935	-3.297328
O	5.360253	-2.894115	-1.233518
O	9.084594	-3.297331	-0.830302
O	5.360253	-1.233511	-2.894122
O	7.021048	-1.233511	-1.233518
O	7.021048	-2.894115	-2.894122
Rh	4.127100	-4.127633	0.000000
Rh	6.190645	-6.191453	-2.063820
Si	3.095327	-5.159543	-3.095720
Si	5.158873	-3.095723	-3.095720
Si	9.285974	-5.159543	-1.031910
Si	7.222428	-3.095723	-1.031910
O	7.423807	0.830302	-3.297328
O	11.550908	-0.830302	-0.830302
O	9.084592	-0.830302	-3.297328
O	9.487352	1.233518	-1.233518
O	13.211694	0.830302	-0.830302
O	9.487352	2.894122	-2.894122
O	11.148148	2.894122	-1.233518
O	11.148148	1.233518	-2.894122
Rh	8.254199	0.000000	0.000000
Rh	10.317745	-2.063820	-2.063820
Si	7.222427	-1.031910	-3.095720
Si	9.285972	1.031910	-3.095720
Si	13.413074	-1.031910	-1.031910
Si	11.349528	1.031910	-1.031910
O	-0.830393	-3.297331	-7.424961
O	3.296709	-4.957935	-4.957935
O	0.830393	-4.957935	-7.424961
O	1.233153	-2.894115	-5.361151
O	4.957494	-3.297331	-4.957935
O	1.233153	-1.233511	-7.021755
O	2.893948	-1.233511	-5.361151
O	2.893948	-2.894115	-7.021755
Rh	0.000000	-4.127633	-4.127633
Rh	2.063546	-6.191453	-6.191453
Si	-1.031773	-5.159543	-7.223353
Si	1.031773	-3.095723	-7.223353
Si	5.158874	-5.159543	-5.159543
Si	3.095329	-3.095723	-5.159543
O	3.296707	0.830302	-7.424961
O	7.423808	-0.830302	-4.957935
O	4.957493	-0.830302	-7.424961
O	5.360253	1.233518	-5.361151
O	9.084594	0.830302	-4.957935
O	5.360253	2.894122	-7.021755
O	7.021048	2.894122	-5.361151
O	7.021048	1.233518	-7.021755
Rh	4.127100	0.000000	-4.127633
Rh	6.190645	-2.063820	-6.191453
Si	3.095327	-1.031910	-7.223353
Si	5.158873	1.031910	-7.223353
Si	9.285974	-1.031910	-5.159543
Si	7.222428	1.031910	-5.159543
