40

O	1.915699	0.000000	1.915699
O	0.000000	1.915699	1.915699
O	1.915699	1.915699	0.000000
Sr	0.000000	0.000000	0.000000
V	1.900699	1.915699	1.915699
O	1.915699	0.000000	5.747098
O	0.000000	1.915699	5.747098
O	1.915699	1.915699	3.831399
Sr	0.000000	0.000000	3.831399
V	1.900699	1.915699	5.747098
O	1.915699	3.831399	1.915699
O	0.000000	5.747098	1.915699
O	1.915699	5.747098	0.000000
Sr	0.000000	3.831399	0.000000
V	1.900699	5.747098	1.915699
O	1.915699	3.831399	5.747098
O	0.000000	5.747098	5.747098
O	1.915699	5.747098	3.831399
Sr	0.000000	3.831399	3.831399
V	1.900699	5.747098	5.747098
O	5.747098	0.000000	1.915699
O	3.831399	1.915699	1.915699
O	5.747098	1.915699	0.000000
Sr	3.831399	0.000000	0.000000
V	5.732098	1.915699	1.915699
O	5.747098	0.000000	5.747098
O	3.831399	1.915699	5.747098
O	5.747098	1.915699	3.831399
Sr	3.831399	0.000000	3.831399
V	5.732098	1.915699	5.747098
O	5.747098	3.831399	1.915699
O	3.831399	5.747098	1.915699
O	5.747098	5.747098	0.000000
Sr	3.831399	3.831399	0.000000
V	5.732098	5.747098	1.915699
O	5.747098	3.831399	5.747098
O	3.831399	5.747098	5.747098
O	5.747098	5.747098	3.831399
Sr	3.831399	3.831399	3.831399
V	5.732098	5.747098	5.747098
