40

B	0.000000	0.000000	0.000000
K	2.234273	2.234273	2.234273
O	2.234273	2.234273	0.000000
O	2.234273	0.000000	2.234273
O	0.000000	2.234273	2.234273
B	0.000000	0.000000	4.468554
K	2.234273	2.234273	6.702827
O	2.234273	2.234273	4.468554
O	2.234273	0.000000	6.702827
O	0.000000	2.234273	6.702827
B	0.000000	4.468554	0.000000
K	2.234273	6.702827	2.234273
O	2.234273	6.702827	0.000000
O	2.234273	4.468554	2.234273
O	0.000000	6.702827	2.234273
B	0.000000	4.468554	4.468554
K	2.234273	6.702827	6.702827
O	2.234273	6.702827	4.468554
O	2.234273	4.468554	6.702827
O	0.000000	6.702827	6.702827
B	4.468554	0.000000	0.000000
K	6.702827	2.234273	2.234273
O	6.702827	2.234273	0.000000
O	6.702827	0.000000	2.234273
O	4.468554	2.234273	2.234273
B	4.468554	0.000000	4.468554
K	6.702827	2.234273	6.702827
O	6.702827	2.234273	4.468554
O	6.702827	0.000000	6.702827
O	4.468554	2.234273	6.702827
B	4.468554	4.468554	0.000000
K	6.702827	6.702827	2.234273
O	6.702827	6.702827	0.000000
O	6.702827	4.468554	2.234273
O	4.468554	6.702827	2.234273
B	4.468554	4.468554	4.468554
K	6.702827	6.702827	6.702827
O	6.702827	6.702827	4.468554
O	6.702827	4.468554	6.702827
O	4.468554	6.702827	6.702827
