112

Ce	0.000000	0.000000	0.000000
Ce	2.799925	-2.804514	-2.804514
O	4.104770	-1.497007	-1.497006
O	-1.495080	1.497006	-4.112022
O	1.495080	-1.497007	-4.112022
O	1.304845	1.307508	-1.307508
O	7.094929	1.497006	-1.497006
O	1.304845	4.301521	-4.301521
O	4.295004	4.301521	-1.307508
O	4.295004	1.307508	-4.301521
Rb	-1.399962	-1.402257	-4.206772
Rb	4.199887	1.402257	-1.402257
Rb	6.999812	-1.402257	-1.402257
Rb	1.399962	1.402257	-4.206772
Ce	5.599850	5.609029	0.000000
Ce	8.399774	2.804514	-2.804514
O	9.704620	4.112022	-1.497006
O	4.104770	7.106035	-4.112022
O	7.094929	4.112022	-4.112022
O	6.904695	6.916537	-1.307508
O	12.694779	7.106035	-1.497006
O	6.904695	9.910550	-4.301521
O	9.894854	9.910550	-1.307508
O	9.894854	6.916537	-4.301521
Rb	4.199887	4.206772	-4.206772
Rb	9.799737	7.011286	-1.402257
Rb	12.599662	4.206772	-1.402257
Rb	6.999812	7.011286	-4.206772
Ce	-5.599850	0.000000	-5.609029
Ce	-2.799925	-2.804514	-8.413543
O	-1.495080	-1.497007	-7.106035
O	-7.094929	1.497006	-9.721051
O	-4.104770	-1.497007	-9.721051
O	-4.295004	1.307508	-6.916537
O	1.495080	1.497006	-7.106035
O	-4.295004	4.301521	-9.910550
O	-1.304845	4.301521	-6.916537
O	-1.304845	1.307508	-9.910550
Rb	-6.999812	-1.402257	-9.815800
Rb	-1.399962	1.402257	-7.011286
Rb	1.399962	-1.402257	-7.011286
Rb	-4.199887	1.402257	-9.815800
Ce	0.000000	5.609029	-5.609029
Ce	2.799925	2.804514	-8.413543
O	4.104770	4.112022	-7.106035
O	-1.495080	7.106035	-9.721051
O	1.495080	4.112022	-9.721051
O	1.304845	6.916537	-6.916537
O	7.094929	7.106035	-7.106035
O	1.304845	9.910550	-9.910550
O	4.295004	9.910550	-6.916537
O	4.295004	6.916537	-9.910550
Rb	-1.399962	4.206772	-9.815800
Rb	4.199887	7.011286	-7.011286
Rb	6.999812	4.206772	-7.011286
Rb	1.399962	7.011286	-9.815800
Ce	5.599850	-5.609029	0.000000
Ce	8.399774	-8.413543	-2.804514
O	9.704620	-7.106035	-1.497006
O	4.104770	-4.112022	-4.112022
O	7.094929	-7.106035	-4.112022
O	6.904695	-4.301521	-1.307508
O	12.694779	-4.112022	-1.497006
O	6.904695	-1.307508	-4.301521
O	9.894854	-1.307508	-1.307508
O	9.894854	-4.301521	-4.301521
Rb	4.199887	-7.011286	-4.206772
Rb	9.799737	-4.206772	-1.402257
Rb	12.599662	-7.011286	-1.402257
Rb	6.999812	-4.206772	-4.206772
Ce	11.199699	0.000000	0.000000
Ce	13.999624	-2.804514	-2.804514
O	15.304469	-1.497007	-1.497006
O	9.704620	1.497006	-4.112022
O	12.694779	-1.497007	-4.112022
O	12.504544	1.307508	-1.307508
O	18.294629	1.497006	-1.497006
O	12.504544	4.301521	-4.301521
O	15.494704	4.301521	-1.307508
O	15.494704	1.307508	-4.301521
Rb	9.799737	-1.402257	-4.206772
Rb	15.399587	1.402257	-1.402257
Rb	18.199511	-1.402257	-1.402257
Rb	12.599662	1.402257	-4.206772
Ce	0.000000	-5.609029	-5.609029
Ce	2.799925	-8.413543	-8.413543
O	4.104770	-7.106035	-7.106035
O	-1.495080	-4.112022	-9.721051
O	1.495080	-7.106035	-9.721051
O	1.304845	-4.301521	-6.916537
O	7.094929	-4.112022	-7.106035
O	1.304845	-1.307508	-9.910550
O	4.295004	-1.307508	-6.916537
O	4.295004	-4.301521	-9.910550
Rb	-1.399962	-7.011286	-9.815800
Rb	4.199887	-4.206772	-7.011286
Rb	6.999812	-7.011286	-7.011286
Rb	1.399962	-4.206772	-9.815800
Ce	5.599850	0.000000	-5.609029
Ce	8.399774	-2.804514	-8.413543
O	9.704620	-1.497007	-7.106035
O	4.104770	1.497006	-9.721051
O	7.094929	-1.497007	-9.721051
O	6.904695	1.307508	-6.916537
O	12.694779	1.497006	-7.106035
O	6.904695	4.301521	-9.910550
O	9.894854	4.301521	-6.916537
O	9.894854	1.307508	-9.910550
Rb	4.199887	-1.402257	-9.815800
Rb	9.799737	1.402257	-7.011286
Rb	12.599662	-1.402257	-7.011286
Rb	6.999812	1.402257	-9.815800
