40

As	2.004131	2.004131	2.004131
O	2.004131	2.004131	0.000000
O	2.004131	0.000000	2.004131
O	0.000000	2.004131	2.004131
Sb	0.000000	0.000000	0.000000
As	2.004131	2.004131	6.012392
O	2.004131	2.004131	4.008261
O	2.004131	0.000000	6.012392
O	0.000000	2.004131	6.012392
Sb	0.000000	0.000000	4.008261
As	2.004131	6.012392	2.004131
O	2.004131	6.012392	0.000000
O	2.004131	4.008261	2.004131
O	0.000000	6.012392	2.004131
Sb	0.000000	4.008261	0.000000
As	2.004131	6.012392	6.012392
O	2.004131	6.012392	4.008261
O	2.004131	4.008261	6.012392
O	0.000000	6.012392	6.012392
Sb	0.000000	4.008261	4.008261
As	6.012392	2.004131	2.004131
O	6.012392	2.004131	0.000000
O	6.012392	0.000000	2.004131
O	4.008261	2.004131	2.004131
Sb	4.008261	0.000000	0.000000
As	6.012392	2.004131	6.012392
O	6.012392	2.004131	4.008261
O	6.012392	0.000000	6.012392
O	4.008261	2.004131	6.012392
Sb	4.008261	0.000000	4.008261
As	6.012392	6.012392	2.004131
O	6.012392	6.012392	0.000000
O	6.012392	4.008261	2.004131
O	4.008261	6.012392	2.004131
Sb	4.008261	4.008261	0.000000
As	6.012392	6.012392	6.012392
O	6.012392	6.012392	4.008261
O	6.012392	4.008261	6.012392
O	4.008261	6.012392	6.012392
Sb	4.008261	4.008261	4.008261
