40

O	1.968574	1.968574	0.000000
O	1.968574	0.000000	1.968574
O	0.000000	1.968574	1.968574
Re	0.000000	0.000000	0.000000
Rh	1.968574	1.968574	1.968574
O	1.968574	1.968574	3.937148
O	1.968574	0.000000	5.905721
O	0.000000	1.968574	5.905721
Re	0.000000	0.000000	3.937148
Rh	1.968574	1.968574	5.905721
O	1.968574	5.905721	0.000000
O	1.968574	3.937148	1.968574
O	0.000000	5.905721	1.968574
Re	0.000000	3.937148	0.000000
Rh	1.968574	5.905721	1.968574
O	1.968574	5.905721	3.937148
O	1.968574	3.937148	5.905721
O	0.000000	5.905721	5.905721
Re	0.000000	3.937148	3.937148
Rh	1.968574	5.905721	5.905721
O	5.905721	1.968574	0.000000
O	5.905721	0.000000	1.968574
O	3.937148	1.968574	1.968574
Re	3.937148	0.000000	0.000000
Rh	5.905721	1.968574	1.968574
O	5.905721	1.968574	3.937148
O	5.905721	0.000000	5.905721
O	3.937148	1.968574	5.905721
Re	3.937148	0.000000	3.937148
Rh	5.905721	1.968574	5.905721
O	5.905721	5.905721	0.000000
O	5.905721	3.937148	1.968574
O	3.937148	5.905721	1.968574
Re	3.937148	3.937148	0.000000
Rh	5.905721	5.905721	1.968574
O	5.905721	5.905721	3.937148
O	5.905721	3.937148	5.905721
O	3.937148	5.905721	5.905721
Re	3.937148	3.937148	3.937148
Rh	5.905721	5.905721	5.905721
