40

O	1.945090	1.945090	0.000000
O	0.000000	1.945090	1.945090
O	1.945090	0.000000	1.945090
Re	0.000000	0.000000	0.000000
Rh	1.945090	1.945090	1.945090
O	1.945090	1.945090	3.890180
O	0.000000	1.945090	5.835270
O	1.945090	0.000000	5.835270
Re	0.000000	0.000000	3.890180
Rh	1.945090	1.945090	5.835270
O	1.945090	5.835270	0.000000
O	0.000000	5.835270	1.945090
O	1.945090	3.890180	1.945090
Re	0.000000	3.890180	0.000000
Rh	1.945090	5.835270	1.945090
O	1.945090	5.835270	3.890180
O	0.000000	5.835270	5.835270
O	1.945090	3.890180	5.835270
Re	0.000000	3.890180	3.890180
Rh	1.945090	5.835270	5.835270
O	5.835270	1.945090	0.000000
O	3.890180	1.945090	1.945090
O	5.835270	0.000000	1.945090
Re	3.890180	0.000000	0.000000
Rh	5.835270	1.945090	1.945090
O	5.835270	1.945090	3.890180
O	3.890180	1.945090	5.835270
O	5.835270	0.000000	5.835270
Re	3.890180	0.000000	3.890180
Rh	5.835270	1.945090	5.835270
O	5.835270	5.835270	0.000000
O	3.890180	5.835270	1.945090
O	5.835270	3.890180	1.945090
Re	3.890180	3.890180	0.000000
Rh	5.835270	5.835270	1.945090
O	5.835270	5.835270	3.890180
O	3.890180	5.835270	5.835270
O	5.835270	3.890180	5.835270
Re	3.890180	3.890180	3.890180
Rh	5.835270	5.835270	5.835270
