40

Ag	2.006468	2.006468	2.006468
O	0.000000	2.006468	2.006468
O	2.006468	0.000000	2.006468
O	2.006468	2.006468	0.000000
S	0.000000	0.000000	0.000000
Ag	2.006468	2.006468	6.019405
O	0.000000	2.006468	6.019405
O	2.006468	0.000000	6.019405
O	2.006468	2.006468	4.012937
S	0.000000	0.000000	4.012937
Ag	2.006468	6.019405	2.006468
O	0.000000	6.019405	2.006468
O	2.006468	4.012937	2.006468
O	2.006468	6.019405	0.000000
S	0.000000	4.012937	0.000000
Ag	2.006468	6.019405	6.019405
O	0.000000	6.019405	6.019405
O	2.006468	4.012937	6.019405
O	2.006468	6.019405	4.012937
S	0.000000	4.012937	4.012937
Ag	6.019405	2.006468	2.006468
O	4.012937	2.006468	2.006468
O	6.019405	0.000000	2.006468
O	6.019405	2.006468	0.000000
S	4.012937	0.000000	0.000000
Ag	6.019405	2.006468	6.019405
O	4.012937	2.006468	6.019405
O	6.019405	0.000000	6.019405
O	6.019405	2.006468	4.012937
S	4.012937	0.000000	4.012937
Ag	6.019405	6.019405	2.006468
O	4.012937	6.019405	2.006468
O	6.019405	4.012937	2.006468
O	6.019405	6.019405	0.000000
S	4.012937	4.012937	0.000000
Ag	6.019405	6.019405	6.019405
O	4.012937	6.019405	6.019405
O	6.019405	4.012937	6.019405
O	6.019405	6.019405	4.012937
S	4.012937	4.012937	4.012937
