40

I	2.109396	2.109396	2.109396
O	0.000000	2.109396	2.109396
O	2.109396	0.000000	2.109396
O	2.109396	2.109396	0.000000
Se	0.000000	0.000000	0.000000
I	2.109396	2.109396	6.328187
O	0.000000	2.109396	6.328187
O	2.109396	0.000000	6.328187
O	2.109396	2.109396	4.218791
Se	0.000000	0.000000	4.218791
I	2.109396	6.328187	2.109396
O	0.000000	6.328187	2.109396
O	2.109396	4.218791	2.109396
O	2.109396	6.328187	0.000000
Se	0.000000	4.218791	0.000000
I	2.109396	6.328187	6.328187
O	0.000000	6.328187	6.328187
O	2.109396	4.218791	6.328187
O	2.109396	6.328187	4.218791
Se	0.000000	4.218791	4.218791
I	6.328187	2.109396	2.109396
O	4.218791	2.109396	2.109396
O	6.328187	0.000000	2.109396
O	6.328187	2.109396	0.000000
Se	4.218791	0.000000	0.000000
I	6.328187	2.109396	6.328187
O	4.218791	2.109396	6.328187
O	6.328187	0.000000	6.328187
O	6.328187	2.109396	4.218791
Se	4.218791	0.000000	4.218791
I	6.328187	6.328187	2.109396
O	4.218791	6.328187	2.109396
O	6.328187	4.218791	2.109396
O	6.328187	6.328187	0.000000
Se	4.218791	4.218791	0.000000
I	6.328187	6.328187	6.328187
O	4.218791	6.328187	6.328187
O	6.328187	4.218791	6.328187
O	6.328187	6.328187	4.218791
Se	4.218791	4.218791	4.218791
