40

Al	0.000000	0.000000	0.000000
O	2.245063	2.245063	0.000000
O	2.245063	0.000000	2.245063
O	0.000000	2.245063	2.245063
Pr	2.245063	2.245063	2.245063
Al	0.000000	0.000000	4.490132
O	2.245063	2.245063	4.490132
O	2.245063	0.000000	6.735195
O	0.000000	2.245063	6.735195
Pr	2.245063	2.245063	6.735195
Al	0.000000	4.490132	0.000000
O	2.245063	6.735195	0.000000
O	2.245063	4.490132	2.245063
O	0.000000	6.735195	2.245063
Pr	2.245063	6.735195	2.245063
Al	0.000000	4.490132	4.490132
O	2.245063	6.735195	4.490132
O	2.245063	4.490132	6.735195
O	0.000000	6.735195	6.735195
Pr	2.245063	6.735195	6.735195
Al	4.490132	0.000000	0.000000
O	6.735195	2.245063	0.000000
O	6.735195	0.000000	2.245063
O	4.490132	2.245063	2.245063
Pr	6.735195	2.245063	2.245063
Al	4.490132	0.000000	4.490132
O	6.735195	2.245063	4.490132
O	6.735195	0.000000	6.735195
O	4.490132	2.245063	6.735195
Pr	6.735195	2.245063	6.735195
Al	4.490132	4.490132	0.000000
O	6.735195	6.735195	0.000000
O	6.735195	4.490132	2.245063
O	4.490132	6.735195	2.245063
Pr	6.735195	6.735195	2.245063
Al	4.490132	4.490132	4.490132
O	6.735195	6.735195	4.490132
O	6.735195	4.490132	6.735195
O	4.490132	6.735195	6.735195
Pr	6.735195	6.735195	6.735195
