40

Gd	2.145036	2.145036	2.145036
O	2.145036	2.145036	0.000000
O	0.000000	2.145036	2.145036
O	2.145036	0.000000	2.145036
V	0.000000	0.000000	0.000000
Gd	2.145036	2.145036	6.435108
O	2.145036	2.145036	4.290072
O	0.000000	2.145036	6.435108
O	2.145036	0.000000	6.435108
V	0.000000	0.000000	4.290072
Gd	2.145036	6.435108	2.145036
O	2.145036	6.435108	0.000000
O	0.000000	6.435108	2.145036
O	2.145036	4.290072	2.145036
V	0.000000	4.290072	0.000000
Gd	2.145036	6.435108	6.435108
O	2.145036	6.435108	4.290072
O	0.000000	6.435108	6.435108
O	2.145036	4.290072	6.435108
V	0.000000	4.290072	4.290072
Gd	6.435108	2.145036	2.145036
O	6.435108	2.145036	0.000000
O	4.290072	2.145036	2.145036
O	6.435108	0.000000	2.145036
V	4.290072	0.000000	0.000000
Gd	6.435108	2.145036	6.435108
O	6.435108	2.145036	4.290072
O	4.290072	2.145036	6.435108
O	6.435108	0.000000	6.435108
V	4.290072	0.000000	4.290072
Gd	6.435108	6.435108	2.145036
O	6.435108	6.435108	0.000000
O	4.290072	6.435108	2.145036
O	6.435108	4.290072	2.145036
V	4.290072	4.290072	0.000000
Gd	6.435108	6.435108	6.435108
O	6.435108	6.435108	4.290072
O	4.290072	6.435108	6.435108
O	6.435108	4.290072	6.435108
V	4.290072	4.290072	4.290072
