40

Cl	1.929824	1.929824	1.929824
Mn	0.000000	0.000000	0.000000
O	0.000000	1.929824	1.929824
O	1.929824	0.000000	1.929824
O	1.929824	1.929824	0.000000
Cl	1.929824	1.929824	5.789472
Mn	0.000000	0.000000	3.859648
O	0.000000	1.929824	5.789472
O	1.929824	0.000000	5.789472
O	1.929824	1.929824	3.859648
Cl	1.929824	5.789472	1.929824
Mn	0.000000	3.859648	0.000000
O	0.000000	5.789472	1.929824
O	1.929824	3.859648	1.929824
O	1.929824	5.789472	0.000000
Cl	1.929824	5.789472	5.789472
Mn	0.000000	3.859648	3.859648
O	0.000000	5.789472	5.789472
O	1.929824	3.859648	5.789472
O	1.929824	5.789472	3.859648
Cl	5.789472	1.929824	1.929824
Mn	3.859648	0.000000	0.000000
O	3.859648	1.929824	1.929824
O	5.789472	0.000000	1.929824
O	5.789472	1.929824	0.000000
Cl	5.789472	1.929824	5.789472
Mn	3.859648	0.000000	3.859648
O	3.859648	1.929824	5.789472
O	5.789472	0.000000	5.789472
O	5.789472	1.929824	3.859648
Cl	5.789472	5.789472	1.929824
Mn	3.859648	3.859648	0.000000
O	3.859648	5.789472	1.929824
O	5.789472	3.859648	1.929824
O	5.789472	5.789472	0.000000
Cl	5.789472	5.789472	5.789472
Mn	3.859648	3.859648	3.859648
O	3.859648	5.789472	5.789472
O	5.789472	3.859648	5.789472
O	5.789472	5.789472	3.859648
