40

Eu	0.000000	0.000000	0.000000
O	1.900740	0.000000	1.900740
O	0.000000	1.900740	1.900740
O	1.900740	1.900740	0.000000
V	1.900740	1.900740	1.900740
Eu	0.000000	0.000000	3.801480
O	1.900740	0.000000	5.702220
O	0.000000	1.900740	5.702220
O	1.900740	1.900740	3.801480
V	1.900740	1.900740	5.702220
Eu	0.000000	3.801480	0.000000
O	1.900740	3.801480	1.900740
O	0.000000	5.702220	1.900740
O	1.900740	5.702220	0.000000
V	1.900740	5.702220	1.900740
Eu	0.000000	3.801480	3.801480
O	1.900740	3.801480	5.702220
O	0.000000	5.702220	5.702220
O	1.900740	5.702220	3.801480
V	1.900740	5.702220	5.702220
Eu	3.801480	0.000000	0.000000
O	5.702220	0.000000	1.900740
O	3.801480	1.900740	1.900740
O	5.702220	1.900740	0.000000
V	5.702220	1.900740	1.900740
Eu	3.801480	0.000000	3.801480
O	5.702220	0.000000	5.702220
O	3.801480	1.900740	5.702220
O	5.702220	1.900740	3.801480
V	5.702220	1.900740	5.702220
Eu	3.801480	3.801480	0.000000
O	5.702220	3.801480	1.900740
O	3.801480	5.702220	1.900740
O	5.702220	5.702220	0.000000
V	5.702220	5.702220	1.900740
Eu	3.801480	3.801480	3.801480
O	5.702220	3.801480	5.702220
O	3.801480	5.702220	5.702220
O	5.702220	5.702220	3.801480
V	5.702220	5.702220	5.702220
