40

Eu	2.124010	2.124010	2.124010
O	2.124010	2.124010	0.000000
O	2.124010	0.000000	2.124010
O	0.000000	2.124010	2.124010
V	0.000000	0.000000	0.000000
Eu	2.124010	2.124010	6.372031
O	2.124010	2.124010	4.248020
O	2.124010	0.000000	6.372031
O	0.000000	2.124010	6.372031
V	0.000000	0.000000	4.248020
Eu	2.124010	6.372031	2.124010
O	2.124010	6.372031	0.000000
O	2.124010	4.248020	2.124010
O	0.000000	6.372031	2.124010
V	0.000000	4.248020	0.000000
Eu	2.124010	6.372031	6.372031
O	2.124010	6.372031	4.248020
O	2.124010	4.248020	6.372031
O	0.000000	6.372031	6.372031
V	0.000000	4.248020	4.248020
Eu	6.372031	2.124010	2.124010
O	6.372031	2.124010	0.000000
O	6.372031	0.000000	2.124010
O	4.248020	2.124010	2.124010
V	4.248020	0.000000	0.000000
Eu	6.372031	2.124010	6.372031
O	6.372031	2.124010	4.248020
O	6.372031	0.000000	6.372031
O	4.248020	2.124010	6.372031
V	4.248020	0.000000	4.248020
Eu	6.372031	6.372031	2.124010
O	6.372031	6.372031	0.000000
O	6.372031	4.248020	2.124010
O	4.248020	6.372031	2.124010
V	4.248020	4.248020	0.000000
Eu	6.372031	6.372031	6.372031
O	6.372031	6.372031	4.248020
O	6.372031	4.248020	6.372031
O	4.248020	6.372031	6.372031
V	4.248020	4.248020	4.248020
