40

Ba	0.000000	0.000000	0.000000
O	0.000000	2.127793	2.127793
O	2.127793	0.000000	2.127793
O	2.127793	2.127793	0.000000
Zr	2.127793	2.127793	2.127793
Ba	0.000000	0.000000	4.255586
O	0.000000	2.127793	6.383380
O	2.127793	0.000000	6.383380
O	2.127793	2.127793	4.255586
Zr	2.127793	2.127793	6.383380
Ba	0.000000	4.255586	0.000000
O	0.000000	6.383380	2.127793
O	2.127793	4.255586	2.127793
O	2.127793	6.383380	0.000000
Zr	2.127793	6.383380	2.127793
Ba	0.000000	4.255586	4.255586
O	0.000000	6.383380	6.383380
O	2.127793	4.255586	6.383380
O	2.127793	6.383380	4.255586
Zr	2.127793	6.383380	6.383380
Ba	4.255586	0.000000	0.000000
O	4.255586	2.127793	2.127793
O	6.383380	0.000000	2.127793
O	6.383380	2.127793	0.000000
Zr	6.383380	2.127793	2.127793
Ba	4.255586	0.000000	4.255586
O	4.255586	2.127793	6.383380
O	6.383380	0.000000	6.383380
O	6.383380	2.127793	4.255586
Zr	6.383380	2.127793	6.383380
Ba	4.255586	4.255586	0.000000
O	4.255586	6.383380	2.127793
O	6.383380	4.255586	2.127793
O	6.383380	6.383380	0.000000
Zr	6.383380	6.383380	2.127793
Ba	4.255586	4.255586	4.255586
O	4.255586	6.383380	6.383380
O	6.383380	4.255586	6.383380
O	6.383380	6.383380	4.255586
Zr	6.383380	6.383380	6.383380
