40

Ba	0.000000	0.000000	0.000000
O	0.000000	2.128488	2.128488
O	2.128488	0.000000	2.128488
O	2.128488	2.128488	0.000000
Zr	2.128488	2.128488	2.128488
Ba	0.000000	0.000000	4.256976
O	0.000000	2.128488	6.385464
O	2.128488	0.000000	6.385464
O	2.128488	2.128488	4.256976
Zr	2.128488	2.128488	6.385464
Ba	0.000000	4.256976	0.000000
O	0.000000	6.385464	2.128488
O	2.128488	4.256976	2.128488
O	2.128488	6.385464	0.000000
Zr	2.128488	6.385464	2.128488
Ba	0.000000	4.256976	4.256976
O	0.000000	6.385464	6.385464
O	2.128488	4.256976	6.385464
O	2.128488	6.385464	4.256976
Zr	2.128488	6.385464	6.385464
Ba	4.256976	0.000000	0.000000
O	4.256976	2.128488	2.128488
O	6.385464	0.000000	2.128488
O	6.385464	2.128488	0.000000
Zr	6.385464	2.128488	2.128488
Ba	4.256976	0.000000	4.256976
O	4.256976	2.128488	6.385464
O	6.385464	0.000000	6.385464
O	6.385464	2.128488	4.256976
Zr	6.385464	2.128488	6.385464
Ba	4.256976	4.256976	0.000000
O	4.256976	6.385464	2.128488
O	6.385464	4.256976	2.128488
O	6.385464	6.385464	0.000000
Zr	6.385464	6.385464	2.128488
Ba	4.256976	4.256976	4.256976
O	4.256976	6.385464	6.385464
O	6.385464	4.256976	6.385464
O	6.385464	6.385464	4.256976
Zr	6.385464	6.385464	6.385464
