112

Cs	0.000000	0.000000	0.000000
Cs	2.397415	-2.398241	-2.398241
Nb	-1.198707	-1.199115	-3.597356
Nb	3.596123	1.199115	-1.199115
Nb	1.198707	1.199115	-3.597356
Nb	5.993538	-1.199115	-1.199115
O	-0.908702	0.908520	-3.887961
O	3.886137	-0.908520	-0.908520
O	0.908702	-0.908520	-3.887961
O	1.488713	1.489721	-1.489721
O	5.703532	0.908520	-0.908520
O	1.488713	3.306751	-3.306751
O	3.306117	3.306751	-1.489721
O	3.306117	1.489721	-3.306751
Cs	4.794834	4.796476	0.000000
Cs	7.192249	2.398235	-2.398241
Nb	3.596126	3.597360	-3.597356
Nb	8.390956	5.995591	-1.199115
Nb	5.993541	5.995591	-3.597356
Nb	10.788371	3.597360	-1.199115
O	3.886131	5.704996	-3.887961
O	8.680971	3.887956	-0.908520
O	5.703536	3.887956	-3.887961
O	6.283546	6.286196	-1.489721
O	10.498366	5.704996	-0.908520
O	6.283546	8.103226	-3.306751
O	8.100951	8.103226	-1.489721
O	8.100951	6.286196	-3.306751
Cs	-4.794834	0.000000	-4.796476
Cs	-2.397419	-2.398241	-7.194716
Nb	-5.993541	-1.199115	-8.393831
Nb	-1.198711	1.199115	-5.995591
Nb	-3.596126	1.199115	-8.393831
Nb	1.198704	-1.199115	-5.995591
O	-5.703536	0.908520	-8.684437
O	-0.908696	-0.908520	-5.704996
O	-3.886131	-0.908520	-8.684437
O	-3.306121	1.489721	-6.286196
O	0.908699	0.908520	-5.704996
O	-3.306121	3.306751	-8.103226
O	-1.488716	3.306751	-6.286196
O	-1.488716	1.489721	-8.103226
Cs	0.000000	4.796476	-4.796476
Cs	2.397415	2.398235	-7.194716
Nb	-1.198707	3.597360	-8.393831
Nb	3.596123	5.995591	-5.995591
Nb	1.198707	5.995591	-8.393831
Nb	5.993538	3.597360	-5.995591
O	-0.908702	5.704996	-8.684437
O	3.886137	3.887956	-5.704996
O	0.908702	3.887956	-8.684437
O	1.488713	6.286196	-6.286196
O	5.703532	5.704996	-5.704996
O	1.488713	8.103226	-8.103226
O	3.306117	8.103226	-6.286196
O	3.306117	6.286196	-8.103226
Cs	4.794834	-4.796476	0.000000
Cs	7.192249	-7.194716	-2.398241
Nb	3.596126	-5.995591	-3.597356
Nb	8.390956	-3.597360	-1.199115
Nb	5.993541	-3.597360	-3.597356
Nb	10.788371	-5.995591	-1.199115
O	3.886131	-3.887956	-3.887961
O	8.680971	-5.704996	-0.908520
O	5.703536	-5.704996	-3.887961
O	6.283546	-3.306755	-1.489721
O	10.498366	-3.887956	-0.908520
O	6.283546	-1.489725	-3.306751
O	8.100951	-1.489725	-1.489721
O	8.100951	-3.306755	-3.306751
Cs	9.589668	0.000000	0.000000
Cs	11.987083	-2.398241	-2.398241
Nb	8.390960	-1.199115	-3.597356
Nb	13.185790	1.199115	-1.199115
Nb	10.788375	1.199115	-3.597356
Nb	15.583205	-1.199115	-1.199115
O	8.680965	0.908520	-3.887961
O	13.475805	-0.908520	-0.908520
O	10.498370	-0.908520	-3.887961
O	11.078380	1.489721	-1.489721
O	15.293200	0.908520	-0.908520
O	11.078380	3.306751	-3.306751
O	12.895785	3.306751	-1.489721
O	12.895785	1.489721	-3.306751
Cs	0.000000	-4.796476	-4.796476
Cs	2.397415	-7.194716	-7.194716
Nb	-1.198707	-5.995591	-8.393831
Nb	3.596123	-3.597360	-5.995591
Nb	1.198707	-3.597360	-8.393831
Nb	5.993538	-5.995591	-5.995591
O	-0.908702	-3.887956	-8.684437
O	3.886137	-5.704996	-5.704996
O	0.908702	-5.704996	-8.684437
O	1.488713	-3.306755	-6.286196
O	5.703532	-3.887956	-5.704996
O	1.488713	-1.489725	-8.103226
O	3.306117	-1.489725	-6.286196
O	3.306117	-3.306755	-8.103226
Cs	4.794834	0.000000	-4.796476
Cs	7.192249	-2.398241	-7.194716
Nb	3.596126	-1.199115	-8.393831
Nb	8.390956	1.199115	-5.995591
Nb	5.993541	1.199115	-8.393831
Nb	10.788371	-1.199115	-5.995591
O	3.886131	0.908520	-8.684437
O	8.680971	-0.908520	-5.704996
O	5.703536	-0.908520	-8.684437
O	6.283546	1.489721	-6.286196
O	10.498366	0.908520	-5.704996
O	6.283546	3.306751	-8.103226
O	8.100951	3.306751	-6.286196
O	8.100951	1.489721	-8.103226
