40

O	2.170481	2.170481	0.000000
O	2.170481	0.000000	2.170481
O	0.000000	2.170481	2.170481
Pb	2.170481	2.170481	2.170481
Th	0.000000	0.000000	0.000000
O	2.170481	2.170481	4.340952
O	2.170481	0.000000	6.511433
O	0.000000	2.170481	6.511433
Pb	2.170481	2.170481	6.511433
Th	0.000000	0.000000	4.340952
O	2.170481	6.511433	0.000000
O	2.170481	4.340952	2.170481
O	0.000000	6.511433	2.170481
Pb	2.170481	6.511433	2.170481
Th	0.000000	4.340952	0.000000
O	2.170481	6.511433	4.340952
O	2.170481	4.340952	6.511433
O	0.000000	6.511433	6.511433
Pb	2.170481	6.511433	6.511433
Th	0.000000	4.340952	4.340952
O	6.511433	2.170481	0.000000
O	6.511433	0.000000	2.170481
O	4.340952	2.170481	2.170481
Pb	6.511433	2.170481	2.170481
Th	4.340952	0.000000	0.000000
O	6.511433	2.170481	4.340952
O	6.511433	0.000000	6.511433
O	4.340952	2.170481	6.511433
Pb	6.511433	2.170481	6.511433
Th	4.340952	0.000000	4.340952
O	6.511433	6.511433	0.000000
O	6.511433	4.340952	2.170481
O	4.340952	6.511433	2.170481
Pb	6.511433	6.511433	2.170481
Th	4.340952	4.340952	0.000000
O	6.511433	6.511433	4.340952
O	6.511433	4.340952	6.511433
O	4.340952	6.511433	6.511433
Pb	6.511433	6.511433	6.511433
Th	4.340952	4.340952	4.340952
