40

Hf	0.000000	0.000000	0.000000
I	2.145130	2.145130	2.145130
O	0.000000	2.145130	2.145130
O	2.145130	0.000000	2.145130
O	2.145130	2.145130	0.000000
Hf	0.000000	0.000000	4.290259
I	2.145130	2.145130	6.435389
O	0.000000	2.145130	6.435389
O	2.145130	0.000000	6.435389
O	2.145130	2.145130	4.290259
Hf	0.000000	4.290259	0.000000
I	2.145130	6.435389	2.145130
O	0.000000	6.435389	2.145130
O	2.145130	4.290259	2.145130
O	2.145130	6.435389	0.000000
Hf	0.000000	4.290259	4.290259
I	2.145130	6.435389	6.435389
O	0.000000	6.435389	6.435389
O	2.145130	4.290259	6.435389
O	2.145130	6.435389	4.290259
Hf	4.290259	0.000000	0.000000
I	6.435389	2.145130	2.145130
O	4.290259	2.145130	2.145130
O	6.435389	0.000000	2.145130
O	6.435389	2.145130	0.000000
Hf	4.290259	0.000000	4.290259
I	6.435389	2.145130	6.435389
O	4.290259	2.145130	6.435389
O	6.435389	0.000000	6.435389
O	6.435389	2.145130	4.290259
Hf	4.290259	4.290259	0.000000
I	6.435389	6.435389	2.145130
O	4.290259	6.435389	2.145130
O	6.435389	4.290259	2.145130
O	6.435389	6.435389	0.000000
Hf	4.290259	4.290259	4.290259
I	6.435389	6.435389	6.435389
O	4.290259	6.435389	6.435389
O	6.435389	4.290259	6.435389
O	6.435389	6.435389	4.290259
