112

Co	0.000000	0.000000	0.000000
Co	2.234443	-2.229532	-2.229532
O	1.060824	1.052202	-1.052202
O	1.173610	-1.177330	-3.281734
O	3.295267	-1.177330	-1.177330
O	-1.173610	1.177330	-3.281734
O	3.408054	3.406862	-1.052202
O	3.408054	1.052202	-3.406862
O	1.060824	3.406862	-3.406862
O	5.642497	1.177330	-1.177330
Yb	-1.117217	-1.114771	-3.344303
Yb	5.586104	-1.114771	-1.114771
Yb	1.117217	1.114771	-3.344303
Yb	3.351660	1.114771	-1.114771
Co	4.468886	4.459067	0.000000
Co	6.703329	2.229535	-2.229532
O	5.529709	5.511270	-1.052202
O	5.642496	3.281738	-3.281734
O	7.764153	3.281738	-1.177330
O	3.295276	5.636397	-3.281734
O	7.876940	7.865929	-1.052202
O	7.876940	5.511270	-3.406862
O	5.529709	7.865929	-3.406862
O	10.111383	5.636397	-1.177330
Yb	3.351669	3.344296	-3.344303
Yb	10.054990	3.344296	-1.114771
Yb	5.586103	5.573838	-3.344303
Yb	7.820546	5.573838	-1.114771
Co	-4.468886	0.000000	-4.459067
Co	-2.234443	-2.229532	-6.688599
O	-3.408062	1.052202	-5.511270
O	-3.295276	-1.177330	-7.740802
O	-1.173619	-1.177330	-5.636397
O	-5.642496	1.177330	-7.740802
O	-1.060832	3.406862	-5.511270
O	-1.060832	1.052202	-7.865929
O	-3.408062	3.406862	-7.865929
O	1.173611	1.177330	-5.636397
Yb	-5.586103	-1.114771	-7.803370
Yb	1.117218	-1.114771	-5.573838
Yb	-3.351669	1.114771	-7.803370
Yb	-1.117226	1.114771	-5.573838
Co	0.000000	4.459067	-4.459067
Co	2.234443	2.229535	-6.688599
O	1.060824	5.511270	-5.511270
O	1.173610	3.281738	-7.740802
O	3.295267	3.281738	-5.636397
O	-1.173610	5.636397	-7.740802
O	3.408054	7.865929	-5.511270
O	3.408054	5.511270	-7.865929
O	1.060824	7.865929	-7.865929
O	5.642497	5.636397	-5.636397
Yb	-1.117217	3.344296	-7.803370
Yb	5.586104	3.344296	-5.573838
Yb	1.117217	5.573838	-7.803370
Yb	3.351660	5.573838	-5.573838
Co	4.468886	-4.459067	0.000000
Co	6.703329	-6.688599	-2.229532
O	5.529709	-3.406865	-1.052202
O	5.642496	-5.636397	-3.281734
O	7.764153	-5.636397	-1.177330
O	3.295276	-3.281738	-3.281734
O	7.876940	-1.052206	-1.052202
O	7.876940	-3.406865	-3.406862
O	5.529709	-1.052206	-3.406862
O	10.111383	-3.281738	-1.177330
Yb	3.351669	-5.573838	-3.344303
Yb	10.054990	-5.573838	-1.114771
Yb	5.586103	-3.344296	-3.344303
Yb	7.820546	-3.344296	-1.114771
Co	8.937772	0.000000	0.000000
Co	11.172215	-2.229532	-2.229532
O	9.998595	1.052202	-1.052202
O	10.111382	-1.177330	-3.281734
O	12.233039	-1.177330	-1.177330
O	7.764162	1.177330	-3.281734
O	12.345825	3.406862	-1.052202
O	12.345825	1.052202	-3.406862
O	9.998595	3.406862	-3.406862
O	14.580269	1.177330	-1.177330
Yb	7.820555	-1.114771	-3.344303
Yb	14.523876	-1.114771	-1.114771
Yb	10.054989	1.114771	-3.344303
Yb	12.289432	1.114771	-1.114771
Co	0.000000	-4.459067	-4.459067
Co	2.234443	-6.688599	-6.688599
O	1.060824	-3.406865	-5.511270
O	1.173610	-5.636397	-7.740802
O	3.295267	-5.636397	-5.636397
O	-1.173610	-3.281738	-7.740802
O	3.408054	-1.052206	-5.511270
O	3.408054	-3.406865	-7.865929
O	1.060824	-1.052206	-7.865929
O	5.642497	-3.281738	-5.636397
Yb	-1.117217	-5.573838	-7.803370
Yb	5.586104	-5.573838	-5.573838
Yb	1.117217	-3.344296	-7.803370
Yb	3.351660	-3.344296	-5.573838
Co	4.468886	0.000000	-4.459067
Co	6.703329	-2.229532	-6.688599
O	5.529709	1.052202	-5.511270
O	5.642496	-1.177330	-7.740802
O	7.764153	-1.177330	-5.636397
O	3.295276	1.177330	-7.740802
O	7.876940	3.406862	-5.511270
O	7.876940	1.052202	-7.865929
O	5.529709	3.406862	-7.865929
O	10.111383	1.177330	-5.636397
Yb	3.351669	-1.114771	-7.803370
Yb	10.054990	-1.114771	-5.573838
Yb	5.586103	1.114771	-7.803370
Yb	7.820546	1.114771	-5.573838
