40

Au	0.000000	0.000000	0.000000
Na	1.997546	1.997546	1.997546
O	1.997546	1.997546	0.000000
O	1.997546	0.000000	1.997546
O	0.000000	1.997546	1.997546
Au	0.000000	0.000000	3.995092
Na	1.997546	1.997546	5.992638
O	1.997546	1.997546	3.995092
O	1.997546	0.000000	5.992638
O	0.000000	1.997546	5.992638
Au	0.000000	3.995092	0.000000
Na	1.997546	5.992638	1.997546
O	1.997546	5.992638	0.000000
O	1.997546	3.995092	1.997546
O	0.000000	5.992638	1.997546
Au	0.000000	3.995092	3.995092
Na	1.997546	5.992638	5.992638
O	1.997546	5.992638	3.995092
O	1.997546	3.995092	5.992638
O	0.000000	5.992638	5.992638
Au	3.995092	0.000000	0.000000
Na	5.992638	1.997546	1.997546
O	5.992638	1.997546	0.000000
O	5.992638	0.000000	1.997546
O	3.995092	1.997546	1.997546
Au	3.995092	0.000000	3.995092
Na	5.992638	1.997546	5.992638
O	5.992638	1.997546	3.995092
O	5.992638	0.000000	5.992638
O	3.995092	1.997546	5.992638
Au	3.995092	3.995092	0.000000
Na	5.992638	5.992638	1.997546
O	5.992638	5.992638	0.000000
O	5.992638	3.995092	1.997546
O	3.995092	5.992638	1.997546
Au	3.995092	3.995092	3.995092
Na	5.992638	5.992638	5.992638
O	5.992638	5.992638	3.995092
O	5.992638	3.995092	5.992638
O	3.995092	5.992638	5.992638
