40

As	0.000000	0.000000	11.025859
As	0.000000	-0.000000	17.227626
S	0.000000	-0.000000	28.265530
Se	0.000000	-0.000000	6.327568
Te	0.000000	-0.000000	22.155431
As	-1.115572	-1.932228	20.470527
As	-1.115572	-1.932228	26.672294
S	-1.115572	-1.932228	37.710199
Se	-1.115572	-1.932228	15.772237
Te	-1.115572	-1.932228	31.600100
As	-2.231145	-3.864456	29.915195
As	-2.231145	-3.864456	36.116963
S	-2.231145	-3.864456	47.154867
Se	-2.231145	-3.864456	25.216905
Te	-2.231145	-3.864456	41.044768
As	-1.115572	1.932228	20.470527
As	-1.115572	1.932228	26.672294
S	-1.115572	1.932228	37.710199
Se	-1.115572	1.932228	15.772237
Te	-1.115572	1.932228	31.600100
As	-2.231145	0.000000	29.915195
As	-2.231145	0.000000	36.116963
S	-2.231145	0.000000	47.154867
Se	-2.231145	0.000000	25.216905
Te	-2.231145	0.000000	41.044768
As	-3.346717	-1.932228	39.359864
As	-3.346717	-1.932228	45.561631
S	-3.346717	-1.932228	56.599535
Se	-3.346717	-1.932228	34.661573
Te	-3.346717	-1.932228	50.489436
As	-2.231145	3.864456	29.915195
As	-2.231145	3.864456	36.116963
S	-2.231145	3.864456	47.154867
Se	-2.231145	3.864456	25.216905
Te	-2.231145	3.864456	41.044768
As	-3.346717	1.932228	39.359864
As	-3.346717	1.932228	45.561631
S	-3.346717	1.932228	56.599535
Se	-3.346717	1.932228	34.661573
Te	-3.346717	1.932228	50.489436
As	-4.462289	0.000000	48.804532
As	-4.462289	0.000000	55.006300
S	-4.462289	0.000000	66.044204
Se	-4.462289	0.000000	44.106242
Te	-4.462289	0.000000	59.934105
As	2.231145	0.000000	20.470527
As	2.231145	-0.000000	26.672294
S	2.231145	-0.000000	37.710199
Se	2.231145	-0.000000	15.772237
Te	2.231145	-0.000000	31.600100
As	1.115572	-1.932228	29.915195
As	1.115572	-1.932228	36.116963
S	1.115572	-1.932228	47.154867
Se	1.115572	-1.932228	25.216905
Te	1.115572	-1.932228	41.044768
As	0.000000	-3.864456	39.359864
As	0.000000	-3.864456	45.561631
S	0.000000	-3.864456	56.599535
Se	0.000000	-3.864456	34.661573
Te	0.000000	-3.864456	50.489436
As	1.115572	1.932228	29.915195
As	1.115572	1.932228	36.116963
S	1.115572	1.932228	47.154867
Se	1.115572	1.932228	25.216905
Te	1.115572	1.932228	41.044768
As	0.000000	0.000000	39.359864
As	0.000000	0.000000	45.561631
S	0.000000	0.000000	56.599535
Se	0.000000	0.000000	34.661573
Te	0.000000	0.000000	50.489436
As	-1.115572	-1.932228	48.804532
As	-1.115572	-1.932228	55.006300
S	-1.115572	-1.932228	66.044204
Se	-1.115572	-1.932228	44.106242
Te	-1.115572	-1.932228	59.934105
As	0.000000	3.864456	39.359864
As	0.000000	3.864456	45.561631
S	0.000000	3.864456	56.599535
Se	0.000000	3.864456	34.661573
Te	0.000000	3.864456	50.489436
As	-1.115572	1.932228	48.804532
As	-1.115572	1.932228	55.006300
S	-1.115572	1.932228	66.044204
Se	-1.115572	1.932228	44.106242
Te	-1.115572	1.932228	59.934105
As	-2.231145	0.000000	58.249200
As	-2.231145	0.000000	64.450968
S	-2.231145	0.000000	75.488872
Se	-2.231145	0.000000	53.550910
Te	-2.231145	0.000000	69.378773
As	4.462289	0.000000	29.915195
As	4.462289	-0.000000	36.116963
S	4.462289	-0.000000	47.154867
Se	4.462289	-0.000000	25.216905
Te	4.462289	-0.000000	41.044768
As	3.346717	-1.932228	39.359864
As	3.346717	-1.932228	45.561631
S	3.346717	-1.932228	56.599535
Se	3.346717	-1.932228	34.661573
Te	3.346717	-1.932228	50.489436
As	2.231145	-3.864456	48.804532
As	2.231145	-3.864456	55.006300
S	2.231145	-3.864456	66.044204
Se	2.231145	-3.864456	44.106242
Te	2.231145	-3.864456	59.934105
As	3.346717	1.932228	39.359864
As	3.346717	1.932228	45.561631
S	3.346717	1.932228	56.599535
Se	3.346717	1.932228	34.661573
Te	3.346717	1.932228	50.489436
As	2.231145	0.000000	48.804532
As	2.231145	0.000000	55.006300
S	2.231145	0.000000	66.044204
Se	2.231145	0.000000	44.106242
Te	2.231145	0.000000	59.934105
As	1.115572	-1.932228	58.249200
As	1.115572	-1.932228	64.450968
S	1.115572	-1.932228	75.488872
Se	1.115572	-1.932228	53.550910
Te	1.115572	-1.932228	69.378773
As	2.231145	3.864456	48.804532
As	2.231145	3.864456	55.006300
S	2.231145	3.864456	66.044204
Se	2.231145	3.864456	44.106242
Te	2.231145	3.864456	59.934105
As	1.115572	1.932228	58.249200
As	1.115572	1.932228	64.450968
S	1.115572	1.932228	75.488872
Se	1.115572	1.932228	53.550910
Te	1.115572	1.932228	69.378773
As	0.000000	0.000000	67.693869
As	0.000000	0.000000	73.895636
S	0.000000	0.000000	84.933540
Se	0.000000	0.000000	62.995578
Te	0.000000	0.000000	78.823441
