40

As	0.995477	0.574739	6.332610
Bi	2.986431	1.724217	2.903000
S	-0.995477	-0.574739	4.699517
S	0.995477	0.574739	1.377397
Te	2.986432	1.724217	7.943847
As	-0.995476	-0.574738	15.635158
Bi	0.995478	0.574739	12.205548
S	-2.986430	-1.724216	14.002065
S	-0.995476	-0.574739	10.679945
Te	0.995478	0.574740	17.246395
As	-2.986430	-1.724216	24.937706
Bi	-0.995476	-0.574738	21.508096
S	-4.977384	-2.873694	23.304614
S	-2.986430	-1.724216	19.982493
Te	-0.995475	-0.574738	26.548943
As	2.986432	4.023173	6.332610
Bi	4.977386	5.172651	2.903000
S	0.995477	2.873695	4.699517
S	2.986431	4.023173	1.377397
Te	4.977386	5.172651	7.943847
As	0.995478	2.873695	15.635158
Bi	2.986432	4.023173	12.205548
S	-0.995476	1.724217	14.002065
S	0.995478	2.873695	10.679945
Te	2.986432	4.023173	17.246395
As	-0.995475	1.724218	24.937706
Bi	0.995479	2.873696	21.508096
S	-2.986430	0.574740	23.304614
S	-0.995476	1.724218	19.982493
Te	0.995479	2.873696	26.548943
As	4.977386	7.471607	6.332610
Bi	6.968340	8.621085	2.903000
S	2.986432	6.322129	4.699517
S	4.977386	7.471607	1.377397
Te	6.968340	8.621085	7.943847
As	2.986432	6.322129	15.635158
Bi	4.977386	7.471607	12.205548
S	0.995478	5.172651	14.002065
S	2.986432	6.322129	10.679945
Te	4.977387	7.471607	17.246395
As	0.995479	5.172652	24.937706
Bi	2.986433	6.322129	21.508096
S	-0.995475	4.023174	23.304614
S	0.995478	5.172651	19.982493
Te	2.986433	6.322130	26.548943
As	4.977386	0.574739	6.332610
Bi	6.968340	1.724217	2.903000
S	2.986432	-0.574739	4.699517
S	4.977386	0.574739	1.377397
Te	6.968340	1.724217	7.943847
As	2.986432	-0.574738	15.635158
Bi	4.977386	0.574739	12.205548
S	0.995478	-1.724216	14.002065
S	2.986432	-0.574739	10.679945
Te	4.977387	0.574740	17.246395
As	0.995479	-1.724216	24.937706
Bi	2.986433	-0.574738	21.508096
S	-0.995475	-2.873694	23.304614
S	0.995478	-1.724216	19.982493
Te	2.986433	-0.574738	26.548943
As	6.968340	4.023173	6.332610
Bi	8.959294	5.172651	2.903000
S	4.977386	2.873695	4.699517
S	6.968340	4.023173	1.377397
Te	8.959294	5.172651	7.943847
As	4.977386	2.873695	15.635158
Bi	6.968340	4.023173	12.205548
S	2.986432	1.724217	14.002065
S	4.977386	2.873695	10.679945
Te	6.968341	4.023173	17.246395
As	2.986433	1.724218	24.937706
Bi	4.977387	2.873696	21.508096
S	0.995479	0.574740	23.304614
S	2.986433	1.724218	19.982493
Te	4.977387	2.873696	26.548943
As	8.959294	7.471607	6.332610
Bi	10.950248	8.621085	2.903000
S	6.968340	6.322129	4.699517
S	8.959294	7.471607	1.377397
Te	10.950248	8.621085	7.943847
As	6.968341	6.322129	15.635158
Bi	8.959295	7.471607	12.205548
S	4.977386	5.172651	14.002065
S	6.968340	6.322129	10.679945
Te	8.959295	7.471607	17.246395
As	4.977387	5.172652	24.937706
Bi	6.968341	6.322129	21.508096
S	2.986433	4.023174	23.304614
S	4.977387	5.172651	19.982493
Te	6.968341	6.322130	26.548943
As	8.959294	0.574739	6.332610
Bi	10.950248	1.724217	2.903000
S	6.968340	-0.574739	4.699517
S	8.959294	0.574739	1.377397
Te	10.950248	1.724217	7.943847
As	6.968341	-0.574738	15.635158
Bi	8.959295	0.574739	12.205548
S	4.977386	-1.724216	14.002065
S	6.968340	-0.574739	10.679945
Te	8.959295	0.574740	17.246395
As	4.977387	-1.724216	24.937706
Bi	6.968341	-0.574738	21.508096
S	2.986433	-2.873694	23.304614
S	4.977387	-1.724216	19.982493
Te	6.968341	-0.574738	26.548943
As	10.950248	4.023173	6.332610
Bi	12.941202	5.172651	2.903000
S	8.959294	2.873695	4.699517
S	10.950248	4.023173	1.377397
Te	12.941203	5.172651	7.943847
As	8.959295	2.873695	15.635158
Bi	10.950249	4.023173	12.205548
S	6.968341	1.724217	14.002065
S	8.959294	2.873695	10.679945
Te	10.950249	4.023173	17.246395
As	6.968341	1.724218	24.937706
Bi	8.959295	2.873696	21.508096
S	4.977387	0.574740	23.304614
S	6.968341	1.724218	19.982493
Te	8.959296	2.873696	26.548943
As	12.941202	7.471607	6.332610
Bi	14.932156	8.621085	2.903000
S	10.950248	6.322129	4.699517
S	12.941202	7.471607	1.377397
Te	14.932157	8.621085	7.943847
As	10.950249	6.322129	15.635158
Bi	12.941203	7.471607	12.205548
S	8.959295	5.172651	14.002065
S	10.950249	6.322129	10.679945
Te	12.941203	7.471607	17.246395
As	8.959295	5.172652	24.937706
Bi	10.950249	6.322129	21.508096
S	6.968341	4.023174	23.304614
S	8.959295	5.172651	19.982493
Te	10.950250	6.322130	26.548943
