40

Sb	-0.000000	0.000000	11.993193
Bi	-0.000000	-0.000000	18.479728
Se	0.000000	0.000000	0.046117
Te	-0.000000	-0.000000	6.520278
Te	-0.000000	0.000000	23.868499
Sb	-1.242746	-2.152500	22.144496
Bi	-1.242746	-2.152500	28.631030
Se	-1.242746	-2.152500	10.197420
Te	-1.242746	-2.152500	16.671580
Te	-1.242746	-2.152500	34.019802
Sb	-2.485492	-4.304999	32.295798
Bi	-2.485492	-4.304999	38.782333
Se	-2.485492	-4.304999	20.348722
Te	-2.485492	-4.304999	26.822883
Te	-2.485492	-4.304999	44.171104
Sb	-1.242746	2.152500	22.144496
Bi	-1.242746	2.152500	28.631030
Se	-1.242746	2.152500	10.197420
Te	-1.242746	2.152500	16.671580
Te	-1.242746	2.152500	34.019802
Sb	-2.485492	0.000000	32.295798
Bi	-2.485492	0.000000	38.782333
Se	-2.485492	0.000000	20.348722
Te	-2.485492	0.000000	26.822883
Te	-2.485492	0.000000	44.171104
Sb	-3.728239	-2.152500	42.447101
Bi	-3.728239	-2.152500	48.933635
Se	-3.728239	-2.152500	30.500025
Te	-3.728239	-2.152500	36.974185
Te	-3.728239	-2.152500	54.322407
Sb	-2.485492	4.304999	32.295798
Bi	-2.485492	4.304999	38.782333
Se	-2.485492	4.304999	20.348722
Te	-2.485492	4.304999	26.822883
Te	-2.485492	4.304999	44.171104
Sb	-3.728239	2.152500	42.447101
Bi	-3.728239	2.152500	48.933635
Se	-3.728239	2.152500	30.500025
Te	-3.728239	2.152500	36.974185
Te	-3.728239	2.152500	54.322407
Sb	-4.970985	0.000000	52.598403
Bi	-4.970985	0.000000	59.084938
Se	-4.970985	0.000000	40.651327
Te	-4.970985	0.000000	47.125488
Te	-4.970985	0.000000	64.473709
Sb	2.485492	0.000000	22.144496
Bi	2.485492	-0.000000	28.631030
Se	2.485492	0.000000	10.197420
Te	2.485492	-0.000000	16.671580
Te	2.485492	0.000000	34.019802
Sb	1.242746	-2.152500	32.295798
Bi	1.242746	-2.152500	38.782333
Se	1.242746	-2.152500	20.348722
Te	1.242746	-2.152500	26.822883
Te	1.242746	-2.152500	44.171104
Sb	0.000000	-4.304999	42.447101
Bi	0.000000	-4.304999	48.933635
Se	0.000000	-4.304999	30.500025
Te	0.000000	-4.304999	36.974185
Te	0.000000	-4.304999	54.322407
Sb	1.242746	2.152500	32.295798
Bi	1.242746	2.152500	38.782333
Se	1.242746	2.152500	20.348722
Te	1.242746	2.152500	26.822883
Te	1.242746	2.152500	44.171104
Sb	0.000000	0.000000	42.447101
Bi	0.000000	0.000000	48.933635
Se	0.000000	0.000000	30.500025
Te	0.000000	0.000000	36.974185
Te	0.000000	0.000000	54.322407
Sb	-1.242746	-2.152500	52.598403
Bi	-1.242746	-2.152500	59.084938
Se	-1.242746	-2.152500	40.651327
Te	-1.242746	-2.152500	47.125488
Te	-1.242746	-2.152500	64.473709
Sb	0.000000	4.304999	42.447101
Bi	0.000000	4.304999	48.933635
Se	0.000000	4.304999	30.500025
Te	0.000000	4.304999	36.974185
Te	0.000000	4.304999	54.322407
Sb	-1.242746	2.152500	52.598403
Bi	-1.242746	2.152500	59.084938
Se	-1.242746	2.152500	40.651327
Te	-1.242746	2.152500	47.125488
Te	-1.242746	2.152500	64.473709
Sb	-2.485492	0.000000	62.749706
Bi	-2.485492	0.000000	69.236240
Se	-2.485492	0.000000	50.802630
Te	-2.485492	0.000000	57.276790
Te	-2.485492	0.000000	74.625012
Sb	4.970985	0.000000	32.295798
Bi	4.970985	-0.000000	38.782333
Se	4.970985	0.000000	20.348722
Te	4.970985	-0.000000	26.822883
Te	4.970985	0.000000	44.171104
Sb	3.728239	-2.152500	42.447101
Bi	3.728239	-2.152500	48.933635
Se	3.728239	-2.152500	30.500025
Te	3.728239	-2.152500	36.974185
Te	3.728239	-2.152500	54.322407
Sb	2.485492	-4.304999	52.598403
Bi	2.485492	-4.304999	59.084938
Se	2.485492	-4.304999	40.651327
Te	2.485492	-4.304999	47.125488
Te	2.485492	-4.304999	64.473709
Sb	3.728239	2.152500	42.447101
Bi	3.728239	2.152500	48.933635
Se	3.728239	2.152500	30.500025
Te	3.728239	2.152500	36.974185
Te	3.728239	2.152500	54.322407
Sb	2.485492	0.000000	52.598403
Bi	2.485492	0.000000	59.084938
Se	2.485492	0.000000	40.651327
Te	2.485492	0.000000	47.125488
Te	2.485492	0.000000	64.473709
Sb	1.242746	-2.152500	62.749706
Bi	1.242746	-2.152500	69.236240
Se	1.242746	-2.152500	50.802630
Te	1.242746	-2.152500	57.276790
Te	1.242746	-2.152500	74.625012
Sb	2.485492	4.304999	52.598403
Bi	2.485492	4.304999	59.084938
Se	2.485492	4.304999	40.651327
Te	2.485492	4.304999	47.125488
Te	2.485492	4.304999	64.473709
Sb	1.242746	2.152500	62.749706
Bi	1.242746	2.152500	69.236240
Se	1.242746	2.152500	50.802630
Te	1.242746	2.152500	57.276790
Te	1.242746	2.152500	74.625012
Sb	0.000000	0.000000	72.901008
Bi	0.000000	0.000000	79.387543
Se	0.000000	0.000000	60.953932
Te	0.000000	0.000000	67.428093
Te	0.000000	0.000000	84.776314
