40

Sb	1.027310	0.593118	6.704920
Bi	3.081929	1.779353	2.886411
Se	-1.027310	-0.593118	4.843328
Se	1.027310	0.593118	1.268214
Se	3.081929	1.779353	8.241663
Sb	-1.027310	-0.593117	16.282735
Bi	1.027310	0.593118	12.464225
Se	-3.081929	-1.779353	14.421142
Se	-1.027310	-0.593117	10.846028
Se	1.027310	0.593118	17.819478
Sb	-3.081929	-1.779352	25.860549
Bi	-1.027310	-0.593117	22.042039
Se	-5.136548	-2.965588	23.998956
Se	-3.081929	-1.779352	20.423842
Se	-1.027310	-0.593117	27.397292
Sb	3.081929	4.151823	6.704920
Bi	5.136548	5.338058	2.886411
Se	1.027310	2.965588	4.843328
Se	3.081929	4.151823	1.268214
Se	5.136548	5.338058	8.241663
Sb	1.027310	2.965588	16.282735
Bi	3.081929	4.151823	12.464225
Se	-1.027310	1.779353	14.421142
Se	1.027310	2.965588	10.846028
Se	3.081929	4.151823	17.819478
Sb	-1.027310	1.779353	25.860549
Bi	1.027310	2.965588	22.042039
Se	-3.081929	0.593118	23.998956
Se	-1.027310	1.779353	20.423842
Se	1.027310	2.965588	27.397292
Sb	5.136548	7.710528	6.704920
Bi	7.191168	8.896763	2.886411
Se	3.081929	6.524293	4.843328
Se	5.136548	7.710528	1.268214
Se	7.191168	8.896763	8.241663
Sb	3.081929	6.524293	16.282735
Bi	5.136548	7.710528	12.464225
Se	1.027310	5.338058	14.421142
Se	3.081929	6.524293	10.846028
Se	5.136548	7.710528	17.819478
Sb	1.027310	5.338058	25.860549
Bi	3.081929	6.524293	22.042039
Se	-1.027310	4.151823	23.998956
Se	1.027310	5.338058	20.423842
Se	3.081929	6.524293	27.397292
Sb	5.136548	0.593118	6.704920
Bi	7.191168	1.779353	2.886411
Se	3.081929	-0.593118	4.843328
Se	5.136548	0.593118	1.268214
Se	7.191168	1.779353	8.241663
Sb	3.081929	-0.593117	16.282735
Bi	5.136548	0.593118	12.464225
Se	1.027310	-1.779353	14.421142
Se	3.081929	-0.593117	10.846028
Se	5.136548	0.593118	17.819478
Sb	1.027310	-1.779352	25.860549
Bi	3.081929	-0.593117	22.042039
Se	-1.027310	-2.965588	23.998956
Se	1.027310	-1.779352	20.423842
Se	3.081929	-0.593117	27.397292
Sb	7.191168	4.151823	6.704920
Bi	9.245787	5.338058	2.886411
Se	5.136548	2.965588	4.843328
Se	7.191168	4.151823	1.268214
Se	9.245787	5.338058	8.241663
Sb	5.136548	2.965588	16.282735
Bi	7.191168	4.151823	12.464225
Se	3.081929	1.779353	14.421142
Se	5.136548	2.965588	10.846028
Se	7.191168	4.151823	17.819478
Sb	3.081929	1.779353	25.860549
Bi	5.136548	2.965588	22.042039
Se	1.027310	0.593118	23.998956
Se	3.081929	1.779353	20.423842
Se	5.136548	2.965588	27.397292
Sb	9.245787	7.710528	6.704920
Bi	11.300406	8.896763	2.886411
Se	7.191168	6.524293	4.843328
Se	9.245787	7.710528	1.268214
Se	11.300406	8.896763	8.241663
Sb	7.191168	6.524293	16.282735
Bi	9.245787	7.710528	12.464225
Se	5.136548	5.338058	14.421142
Se	7.191168	6.524293	10.846028
Se	9.245787	7.710528	17.819478
Sb	5.136548	5.338058	25.860549
Bi	7.191168	6.524293	22.042039
Se	3.081929	4.151823	23.998956
Se	5.136548	5.338058	20.423842
Se	7.191168	6.524293	27.397292
Sb	9.245787	0.593118	6.704920
Bi	11.300406	1.779353	2.886411
Se	7.191168	-0.593118	4.843328
Se	9.245787	0.593118	1.268214
Se	11.300406	1.779353	8.241663
Sb	7.191168	-0.593117	16.282735
Bi	9.245787	0.593118	12.464225
Se	5.136548	-1.779353	14.421142
Se	7.191168	-0.593117	10.846028
Se	9.245787	0.593118	17.819478
Sb	5.136548	-1.779352	25.860549
Bi	7.191168	-0.593117	22.042039
Se	3.081929	-2.965588	23.998956
Se	5.136548	-1.779352	20.423842
Se	7.191168	-0.593117	27.397292
Sb	11.300406	4.151823	6.704920
Bi	13.355026	5.338058	2.886411
Se	9.245787	2.965588	4.843328
Se	11.300406	4.151823	1.268214
Se	13.355026	5.338058	8.241663
Sb	9.245787	2.965588	16.282735
Bi	11.300406	4.151823	12.464225
Se	7.191168	1.779353	14.421142
Se	9.245787	2.965588	10.846028
Se	11.300406	4.151823	17.819478
Sb	7.191168	1.779353	25.860549
Bi	9.245787	2.965588	22.042039
Se	5.136548	0.593118	23.998956
Se	7.191168	1.779353	20.423842
Se	9.245787	2.965588	27.397292
Sb	13.355026	7.710528	6.704920
Bi	15.409645	8.896763	2.886411
Se	11.300406	6.524293	4.843328
Se	13.355026	7.710528	1.268214
Se	15.409645	8.896763	8.241663
Sb	11.300406	6.524293	16.282735
Bi	13.355026	7.710528	12.464225
Se	9.245787	5.338058	14.421142
Se	11.300406	6.524293	10.846028
Se	13.355026	7.710528	17.819478
Sb	9.245787	5.338058	25.860549
Bi	11.300406	6.524293	22.042039
Se	7.191168	4.151823	23.998956
Se	9.245787	5.338058	20.423842
Se	11.300406	6.524293	27.397292
