40

Sb	0.000000	0.000000	11.393274
Sb	-0.000000	-0.000000	17.144706
Se	0.000000	0.000000	0.000000
Se	-0.000000	0.000000	6.062977
Se	-0.000000	0.000000	22.475004
Sb	-1.170638	-2.027605	20.905934
Sb	-1.170638	-2.027605	26.657366
Se	-1.170638	-2.027605	9.512660
Se	-1.170638	-2.027605	15.575637
Se	-1.170638	-2.027605	31.987664
Sb	-2.341277	-4.055210	30.418595
Sb	-2.341277	-4.055210	36.170026
Se	-2.341277	-4.055210	19.025320
Se	-2.341277	-4.055210	25.088297
Se	-2.341277	-4.055210	41.500324
Sb	-1.170638	2.027605	20.905934
Sb	-1.170638	2.027605	26.657366
Se	-1.170638	2.027605	9.512660
Se	-1.170638	2.027605	15.575637
Se	-1.170638	2.027605	31.987664
Sb	-2.341277	0.000000	30.418595
Sb	-2.341277	0.000000	36.170026
Se	-2.341277	0.000000	19.025320
Se	-2.341277	0.000000	25.088297
Se	-2.341277	0.000000	41.500324
Sb	-3.511915	-2.027605	39.931255
Sb	-3.511915	-2.027605	45.682686
Se	-3.511915	-2.027605	28.537980
Se	-3.511915	-2.027605	34.600957
Se	-3.511915	-2.027605	51.012984
Sb	-2.341277	4.055210	30.418595
Sb	-2.341277	4.055210	36.170026
Se	-2.341277	4.055210	19.025320
Se	-2.341277	4.055210	25.088297
Se	-2.341277	4.055210	41.500324
Sb	-3.511915	2.027605	39.931255
Sb	-3.511915	2.027605	45.682686
Se	-3.511915	2.027605	28.537980
Se	-3.511915	2.027605	34.600957
Se	-3.511915	2.027605	51.012984
Sb	-4.682553	0.000000	49.443915
Sb	-4.682553	0.000000	55.195346
Se	-4.682553	0.000000	38.050640
Se	-4.682553	0.000000	44.113617
Se	-4.682553	0.000000	60.525644
Sb	2.341277	0.000000	20.905934
Sb	2.341277	-0.000000	26.657366
Se	2.341277	0.000000	9.512660
Se	2.341277	0.000000	15.575637
Se	2.341277	0.000000	31.987664
Sb	1.170638	-2.027605	30.418595
Sb	1.170638	-2.027605	36.170026
Se	1.170638	-2.027605	19.025320
Se	1.170638	-2.027605	25.088297
Se	1.170638	-2.027605	41.500324
Sb	0.000000	-4.055210	39.931255
Sb	0.000000	-4.055210	45.682686
Se	0.000000	-4.055210	28.537980
Se	0.000000	-4.055210	34.600957
Se	0.000000	-4.055210	51.012984
Sb	1.170638	2.027605	30.418595
Sb	1.170638	2.027605	36.170026
Se	1.170638	2.027605	19.025320
Se	1.170638	2.027605	25.088297
Se	1.170638	2.027605	41.500324
Sb	0.000000	0.000000	39.931255
Sb	0.000000	0.000000	45.682686
Se	0.000000	0.000000	28.537980
Se	0.000000	0.000000	34.600957
Se	0.000000	0.000000	51.012984
Sb	-1.170638	-2.027605	49.443915
Sb	-1.170638	-2.027605	55.195346
Se	-1.170638	-2.027605	38.050640
Se	-1.170638	-2.027605	44.113617
Se	-1.170638	-2.027605	60.525644
Sb	0.000000	4.055210	39.931255
Sb	0.000000	4.055210	45.682686
Se	0.000000	4.055210	28.537980
Se	0.000000	4.055210	34.600957
Se	0.000000	4.055210	51.012984
Sb	-1.170638	2.027605	49.443915
Sb	-1.170638	2.027605	55.195346
Se	-1.170638	2.027605	38.050640
Se	-1.170638	2.027605	44.113617
Se	-1.170638	2.027605	60.525644
Sb	-2.341277	0.000000	58.956575
Sb	-2.341277	0.000000	64.708006
Se	-2.341277	0.000000	47.563300
Se	-2.341277	0.000000	53.626277
Se	-2.341277	0.000000	70.038304
Sb	4.682553	0.000000	30.418595
Sb	4.682553	-0.000000	36.170026
Se	4.682553	0.000000	19.025320
Se	4.682553	0.000000	25.088297
Se	4.682553	0.000000	41.500324
Sb	3.511915	-2.027605	39.931255
Sb	3.511915	-2.027605	45.682686
Se	3.511915	-2.027605	28.537980
Se	3.511915	-2.027605	34.600957
Se	3.511915	-2.027605	51.012984
Sb	2.341277	-4.055210	49.443915
Sb	2.341277	-4.055210	55.195346
Se	2.341277	-4.055210	38.050640
Se	2.341277	-4.055210	44.113617
Se	2.341277	-4.055210	60.525644
Sb	3.511915	2.027605	39.931255
Sb	3.511915	2.027605	45.682686
Se	3.511915	2.027605	28.537980
Se	3.511915	2.027605	34.600957
Se	3.511915	2.027605	51.012984
Sb	2.341277	0.000000	49.443915
Sb	2.341277	0.000000	55.195346
Se	2.341277	0.000000	38.050640
Se	2.341277	0.000000	44.113617
Se	2.341277	0.000000	60.525644
Sb	1.170638	-2.027605	58.956575
Sb	1.170638	-2.027605	64.708006
Se	1.170638	-2.027605	47.563300
Se	1.170638	-2.027605	53.626277
Se	1.170638	-2.027605	70.038304
Sb	2.341277	4.055210	49.443915
Sb	2.341277	4.055210	55.195346
Se	2.341277	4.055210	38.050640
Se	2.341277	4.055210	44.113617
Se	2.341277	4.055210	60.525644
Sb	1.170638	2.027605	58.956575
Sb	1.170638	2.027605	64.708006
Se	1.170638	2.027605	47.563300
Se	1.170638	2.027605	53.626277
Se	1.170638	2.027605	70.038304
Sb	0.000000	0.000000	68.469235
Sb	0.000000	0.000000	74.220667
Se	0.000000	0.000000	57.075961
Se	0.000000	0.000000	63.138937
Se	0.000000	0.000000	79.550964
