40

Sb	-0.000000	0.000000	11.653211
Sb	0.000000	-0.000000	18.253517
S	0.000000	0.000000	0.000000
Te	-0.000000	0.000000	6.517918
Te	0.000000	-0.000000	23.388810
Sb	-1.213175	-2.101282	21.622121
Sb	-1.213175	-2.101282	28.222427
S	-1.213175	-2.101282	9.968909
Te	-1.213175	-2.101282	16.486828
Te	-1.213175	-2.101282	33.357719
Sb	-2.426351	-4.202563	31.591030
Sb	-2.426351	-4.202563	38.191336
S	-2.426351	-4.202563	19.937819
Te	-2.426351	-4.202563	26.455737
Te	-2.426351	-4.202563	43.326629
Sb	-1.213175	2.101282	21.622121
Sb	-1.213175	2.101282	28.222427
S	-1.213175	2.101282	9.968909
Te	-1.213175	2.101282	16.486828
Te	-1.213175	2.101282	33.357719
Sb	-2.426351	0.000000	31.591030
Sb	-2.426351	0.000000	38.191336
S	-2.426351	0.000000	19.937819
Te	-2.426351	0.000000	26.455737
Te	-2.426351	0.000000	43.326629
Sb	-3.639526	-2.101282	41.559939
Sb	-3.639526	-2.101282	48.160245
S	-3.639526	-2.101282	29.906728
Te	-3.639526	-2.101282	36.424647
Te	-3.639526	-2.101282	53.295538
Sb	-2.426351	4.202563	31.591030
Sb	-2.426351	4.202563	38.191336
S	-2.426351	4.202563	19.937819
Te	-2.426351	4.202563	26.455737
Te	-2.426351	4.202563	43.326629
Sb	-3.639526	2.101282	41.559939
Sb	-3.639526	2.101282	48.160245
S	-3.639526	2.101282	29.906728
Te	-3.639526	2.101282	36.424647
Te	-3.639526	2.101282	53.295538
Sb	-4.852702	0.000000	51.528849
Sb	-4.852702	0.000000	58.129155
S	-4.852702	0.000000	39.875638
Te	-4.852702	0.000000	46.393556
Te	-4.852702	0.000000	63.264448
Sb	2.426351	0.000000	21.622121
Sb	2.426351	-0.000000	28.222427
S	2.426351	0.000000	9.968909
Te	2.426351	0.000000	16.486828
Te	2.426351	-0.000000	33.357719
Sb	1.213175	-2.101282	31.591030
Sb	1.213175	-2.101282	38.191336
S	1.213175	-2.101282	19.937819
Te	1.213175	-2.101282	26.455737
Te	1.213175	-2.101282	43.326629
Sb	0.000000	-4.202563	41.559939
Sb	0.000000	-4.202563	48.160245
S	0.000000	-4.202563	29.906728
Te	0.000000	-4.202563	36.424647
Te	0.000000	-4.202563	53.295538
Sb	1.213175	2.101282	31.591030
Sb	1.213175	2.101282	38.191336
S	1.213175	2.101282	19.937819
Te	1.213175	2.101282	26.455737
Te	1.213175	2.101282	43.326629
Sb	0.000000	0.000000	41.559939
Sb	0.000000	0.000000	48.160245
S	0.000000	0.000000	29.906728
Te	0.000000	0.000000	36.424647
Te	0.000000	0.000000	53.295538
Sb	-1.213175	-2.101282	51.528849
Sb	-1.213175	-2.101282	58.129155
S	-1.213175	-2.101282	39.875638
Te	-1.213175	-2.101282	46.393556
Te	-1.213175	-2.101282	63.264448
Sb	0.000000	4.202563	41.559939
Sb	0.000000	4.202563	48.160245
S	0.000000	4.202563	29.906728
Te	0.000000	4.202563	36.424647
Te	0.000000	4.202563	53.295538
Sb	-1.213175	2.101282	51.528849
Sb	-1.213175	2.101282	58.129155
S	-1.213175	2.101282	39.875638
Te	-1.213175	2.101282	46.393556
Te	-1.213175	2.101282	63.264448
Sb	-2.426351	0.000000	61.497758
Sb	-2.426351	0.000000	68.098064
S	-2.426351	0.000000	49.844547
Te	-2.426351	0.000000	56.362466
Te	-2.426351	0.000000	73.233357
Sb	4.852702	0.000000	31.591030
Sb	4.852702	-0.000000	38.191336
S	4.852702	0.000000	19.937819
Te	4.852702	0.000000	26.455737
Te	4.852702	-0.000000	43.326629
Sb	3.639526	-2.101282	41.559939
Sb	3.639526	-2.101282	48.160245
S	3.639526	-2.101282	29.906728
Te	3.639526	-2.101282	36.424647
Te	3.639526	-2.101282	53.295538
Sb	2.426351	-4.202563	51.528849
Sb	2.426351	-4.202563	58.129155
S	2.426351	-4.202563	39.875638
Te	2.426351	-4.202563	46.393556
Te	2.426351	-4.202563	63.264448
Sb	3.639526	2.101282	41.559939
Sb	3.639526	2.101282	48.160245
S	3.639526	2.101282	29.906728
Te	3.639526	2.101282	36.424647
Te	3.639526	2.101282	53.295538
Sb	2.426351	0.000000	51.528849
Sb	2.426351	0.000000	58.129155
S	2.426351	0.000000	39.875638
Te	2.426351	0.000000	46.393556
Te	2.426351	0.000000	63.264448
Sb	1.213175	-2.101282	61.497758
Sb	1.213175	-2.101282	68.098064
S	1.213175	-2.101282	49.844547
Te	1.213175	-2.101282	56.362466
Te	1.213175	-2.101282	73.233357
Sb	2.426351	4.202563	51.528849
Sb	2.426351	4.202563	58.129155
S	2.426351	4.202563	39.875638
Te	2.426351	4.202563	46.393556
Te	2.426351	4.202563	63.264448
Sb	1.213175	2.101282	61.497758
Sb	1.213175	2.101282	68.098064
S	1.213175	2.101282	49.844547
Te	1.213175	2.101282	56.362466
Te	1.213175	2.101282	73.233357
Sb	0.000000	0.000000	71.466668
Sb	0.000000	0.000000	78.066974
S	0.000000	0.000000	59.813457
Te	0.000000	0.000000	66.331375
Te	0.000000	0.000000	83.202266
