112

Dy	0.000000	0.000000	0.000000
Dy	2.467186	-2.452026	-2.452026
O	3.709025	-1.211731	-1.211731
O	-1.225348	1.211731	-3.692321
O	1.225348	-1.211731	-3.692321
O	1.241839	1.240295	-1.240295
O	6.159721	1.211731	-1.211731
O	1.241839	3.663757	-3.663757
O	3.692534	3.663757	-1.240295
O	3.692534	1.240295	-3.663757
Pu	-1.233593	-1.226013	-3.678039
Pu	3.700780	1.226013	-1.226013
Pu	6.167966	-1.226013	-1.226013
Pu	1.233593	1.226013	-3.678039
Dy	4.934373	4.904052	0.000000
Dy	7.401559	2.452026	-2.452026
O	8.643398	3.692321	-1.211731
O	3.709025	6.115783	-3.692321
O	6.159721	3.692321	-3.692321
O	6.176211	6.144347	-1.240295
O	11.094093	6.115783	-1.211731
O	6.176211	8.567809	-3.663757
O	8.626907	8.567809	-1.240295
O	8.626907	6.144347	-3.663757
Pu	3.700780	3.678039	-3.678039
Pu	8.635152	6.130065	-1.226013
Pu	11.102339	3.678039	-1.226013
Pu	6.167966	6.130065	-3.678039
Dy	-4.934373	0.000000	-4.904052
Dy	-2.467186	-2.452026	-7.356078
O	-1.225348	-1.211731	-6.115783
O	-6.159721	1.211731	-8.596374
O	-3.709025	-1.211731	-8.596374
O	-3.692534	1.240295	-6.144347
O	1.225348	1.211731	-6.115783
O	-3.692534	3.663757	-8.567809
O	-1.241839	3.663757	-6.144347
O	-1.241839	1.240295	-8.567809
Pu	-6.167966	-1.226013	-8.582091
Pu	-1.233593	1.226013	-6.130065
Pu	1.233593	-1.226013	-6.130065
Pu	-3.700780	1.226013	-8.582091
Dy	0.000000	4.904052	-4.904052
Dy	2.467186	2.452026	-7.356078
O	3.709025	3.692321	-6.115783
O	-1.225348	6.115783	-8.596374
O	1.225348	3.692321	-8.596374
O	1.241839	6.144347	-6.144347
O	6.159721	6.115783	-6.115783
O	1.241839	8.567809	-8.567809
O	3.692534	8.567809	-6.144347
O	3.692534	6.144347	-8.567809
Pu	-1.233593	3.678039	-8.582091
Pu	3.700780	6.130065	-6.130065
Pu	6.167966	3.678039	-6.130065
Pu	1.233593	6.130065	-8.582091
Dy	4.934373	-4.904052	0.000000
Dy	7.401559	-7.356078	-2.452026
O	8.643398	-6.115783	-1.211731
O	3.709025	-3.692321	-3.692321
O	6.159721	-6.115783	-3.692321
O	6.176211	-3.663757	-1.240295
O	11.094093	-3.692321	-1.211731
O	6.176211	-1.240295	-3.663757
O	8.626907	-1.240295	-1.240295
O	8.626907	-3.663757	-3.663757
Pu	3.700780	-6.130065	-3.678039
Pu	8.635152	-3.678039	-1.226013
Pu	11.102339	-6.130065	-1.226013
Pu	6.167966	-3.678039	-3.678039
Dy	9.868746	0.000000	0.000000
Dy	12.335932	-2.452026	-2.452026
O	13.577771	-1.211731	-1.211731
O	8.643398	1.211731	-3.692321
O	11.094093	-1.211731	-3.692321
O	11.110584	1.240295	-1.240295
O	16.028466	1.211731	-1.211731
O	11.110584	3.663757	-3.663757
O	13.561280	3.663757	-1.240295
O	13.561280	1.240295	-3.663757
Pu	8.635152	-1.226013	-3.678039
Pu	13.569525	1.226013	-1.226013
Pu	16.036712	-1.226013	-1.226013
Pu	11.102339	1.226013	-3.678039
Dy	0.000000	-4.904052	-4.904052
Dy	2.467186	-7.356078	-7.356078
O	3.709025	-6.115783	-6.115783
O	-1.225348	-3.692321	-8.596374
O	1.225348	-6.115783	-8.596374
O	1.241839	-3.663757	-6.144347
O	6.159721	-3.692321	-6.115783
O	1.241839	-1.240295	-8.567809
O	3.692534	-1.240295	-6.144347
O	3.692534	-3.663757	-8.567809
Pu	-1.233593	-6.130065	-8.582091
Pu	3.700780	-3.678039	-6.130065
Pu	6.167966	-6.130065	-6.130065
Pu	1.233593	-3.678039	-8.582091
Dy	4.934373	0.000000	-4.904052
Dy	7.401559	-2.452026	-7.356078
O	8.643398	-1.211731	-6.115783
O	3.709025	1.211731	-8.596374
O	6.159721	-1.211731	-8.596374
O	6.176211	1.240295	-6.144347
O	11.094093	1.211731	-6.115783
O	6.176211	3.663757	-8.567809
O	8.626907	3.663757	-6.144347
O	8.626907	1.240295	-8.567809
Pu	3.700780	-1.226013	-8.582091
Pu	8.635152	1.226013	-6.130065
Pu	11.102339	-1.226013	-6.130065
Pu	6.167966	1.226013	-8.582091
