40

O	0.000000	2.075315	2.075315
O	2.075315	0.000000	2.075315
O	2.075315	2.075315	0.000000
Ru	0.000000	0.000000	0.000000
Zr	2.075315	2.075315	2.075315
O	0.000000	2.075315	6.225945
O	2.075315	0.000000	6.225945
O	2.075315	2.075315	4.150630
Ru	0.000000	0.000000	4.150630
Zr	2.075315	2.075315	6.225945
O	0.000000	6.225945	2.075315
O	2.075315	4.150630	2.075315
O	2.075315	6.225945	0.000000
Ru	0.000000	4.150630	0.000000
Zr	2.075315	6.225945	2.075315
O	0.000000	6.225945	6.225945
O	2.075315	4.150630	6.225945
O	2.075315	6.225945	4.150630
Ru	0.000000	4.150630	4.150630
Zr	2.075315	6.225945	6.225945
O	4.150630	2.075315	2.075315
O	6.225945	0.000000	2.075315
O	6.225945	2.075315	0.000000
Ru	4.150630	0.000000	0.000000
Zr	6.225945	2.075315	2.075315
O	4.150630	2.075315	6.225945
O	6.225945	0.000000	6.225945
O	6.225945	2.075315	4.150630
Ru	4.150630	0.000000	4.150630
Zr	6.225945	2.075315	6.225945
O	4.150630	6.225945	2.075315
O	6.225945	4.150630	2.075315
O	6.225945	6.225945	0.000000
Ru	4.150630	4.150630	0.000000
Zr	6.225945	6.225945	2.075315
O	4.150630	6.225945	6.225945
O	6.225945	4.150630	6.225945
O	6.225945	6.225945	4.150630
Ru	4.150630	4.150630	4.150630
Zr	6.225945	6.225945	6.225945
