40

O	0.000000	1.951640	1.951640
O	1.951640	0.000000	1.951640
O	1.951640	1.951640	0.000000
Ru	1.951640	1.951640	1.951640
Zr	0.000000	0.000000	0.000000
O	0.000000	1.951640	5.854921
O	1.951640	0.000000	5.854921
O	1.951640	1.951640	3.903281
Ru	1.951640	1.951640	5.854921
Zr	0.000000	0.000000	3.903281
O	0.000000	5.854921	1.951640
O	1.951640	3.903281	1.951640
O	1.951640	5.854921	0.000000
Ru	1.951640	5.854921	1.951640
Zr	0.000000	3.903281	0.000000
O	0.000000	5.854921	5.854921
O	1.951640	3.903281	5.854921
O	1.951640	5.854921	3.903281
Ru	1.951640	5.854921	5.854921
Zr	0.000000	3.903281	3.903281
O	3.903281	1.951640	1.951640
O	5.854921	0.000000	1.951640
O	5.854921	1.951640	0.000000
Ru	5.854921	1.951640	1.951640
Zr	3.903281	0.000000	0.000000
O	3.903281	1.951640	5.854921
O	5.854921	0.000000	5.854921
O	5.854921	1.951640	3.903281
Ru	5.854921	1.951640	5.854921
Zr	3.903281	0.000000	3.903281
O	3.903281	5.854921	1.951640
O	5.854921	3.903281	1.951640
O	5.854921	5.854921	0.000000
Ru	5.854921	5.854921	1.951640
Zr	3.903281	3.903281	0.000000
O	3.903281	5.854921	5.854921
O	5.854921	3.903281	5.854921
O	5.854921	5.854921	3.903281
Ru	5.854921	5.854921	5.854921
Zr	3.903281	3.903281	3.903281
