40

O	1.893070	1.893070	0.000000
O	0.000000	1.893070	1.893070
O	1.893070	0.000000	1.893070
Tm_3	0.000000	0.000000	0.000000
Zn	1.893070	1.893070	1.893070
O	1.893070	1.893070	3.786151
O	0.000000	1.893070	5.679221
O	1.893070	0.000000	5.679221
Tm_3	0.000000	0.000000	3.786151
Zn	1.893070	1.893070	5.679221
O	1.893070	5.679221	0.000000
O	0.000000	5.679221	1.893070
O	1.893070	3.786151	1.893070
Tm_3	0.000000	3.786151	0.000000
Zn	1.893070	5.679221	1.893070
O	1.893070	5.679221	3.786151
O	0.000000	5.679221	5.679221
O	1.893070	3.786151	5.679221
Tm_3	0.000000	3.786151	3.786151
Zn	1.893070	5.679221	5.679221
O	5.679221	1.893070	0.000000
O	3.786151	1.893070	1.893070
O	5.679221	0.000000	1.893070
Tm_3	3.786151	0.000000	0.000000
Zn	5.679221	1.893070	1.893070
O	5.679221	1.893070	3.786151
O	3.786151	1.893070	5.679221
O	5.679221	0.000000	5.679221
Tm_3	3.786151	0.000000	3.786151
Zn	5.679221	1.893070	5.679221
O	5.679221	5.679221	0.000000
O	3.786151	5.679221	1.893070
O	5.679221	3.786151	1.893070
Tm_3	3.786151	3.786151	0.000000
Zn	5.679221	5.679221	1.893070
O	5.679221	5.679221	3.786151
O	3.786151	5.679221	5.679221
O	5.679221	3.786151	5.679221
Tm_3	3.786151	3.786151	3.786151
Zn	5.679221	5.679221	5.679221
