112

Hf	0.000000	0.000000	0.000000
Hf	2.441490	-2.422567	-2.422567
Np	-1.220745	-1.211284	-3.633851
Np	1.220745	1.211284	-3.633851
Np	3.662234	1.211284	-1.211284
Np	6.103724	-1.211284	-1.211284
O	1.139602	1.131282	-1.131282
O	1.301878	-1.291285	-3.553849
O	3.581091	-1.291285	-1.291285
O	-1.301878	1.291285	-3.553849
O	3.743367	3.713852	-1.131282
O	3.743367	1.131282	-3.713852
O	1.139602	3.713852	-3.713852
O	6.184857	1.291285	-1.291285
Hf	4.882976	4.845137	0.000000
Hf	7.324465	2.422570	-2.422567
Np	3.662231	3.633853	-3.633851
Np	6.103721	6.056420	-3.633851
Np	8.545210	6.056420	-1.211284
Np	10.986700	3.633853	-1.211284
O	6.022578	5.976419	-1.131282
O	6.184854	3.553852	-3.553849
O	8.464067	3.553852	-1.291285
O	3.581098	6.136422	-3.553849
O	8.626343	8.558989	-1.131282
O	8.626343	5.976419	-3.713852
O	6.022578	8.558989	-3.713852
O	11.067833	6.136422	-1.291285
Hf	-4.882976	0.000000	-4.845137
Hf	-2.441486	-2.422567	-7.267704
Np	-6.103721	-1.211284	-8.478987
Np	-3.662231	1.211284	-8.478987
Np	-1.220741	1.211284	-6.056420
Np	1.220748	-1.211284	-6.056420
O	-3.743374	1.131282	-5.976419
O	-3.581098	-1.291285	-8.398986
O	-1.301884	-1.291285	-6.136422
O	-6.184854	1.291285	-8.398986
O	-1.139608	3.713852	-5.976419
O	-1.139608	1.131282	-8.558989
O	-3.743374	3.713852	-8.558989
O	1.301881	1.291285	-6.136422
Hf	0.000000	4.845137	-4.845137
Hf	2.441490	2.422570	-7.267704
Np	-1.220745	3.633853	-8.478987
Np	1.220745	6.056420	-8.478987
Np	3.662234	6.056420	-6.056420
Np	6.103724	3.633853	-6.056420
O	1.139602	5.976419	-5.976419
O	1.301878	3.553852	-8.398986
O	3.581091	3.553852	-6.136422
O	-1.301878	6.136422	-8.398986
O	3.743367	8.558989	-5.976419
O	3.743367	5.976419	-8.558989
O	1.139602	8.558989	-8.558989
O	6.184857	6.136422	-6.136422
Hf	4.882976	-4.845137	0.000000
Hf	7.324465	-7.267704	-2.422567
Np	3.662231	-6.056420	-3.633851
Np	6.103721	-3.633853	-3.633851
Np	8.545210	-3.633853	-1.211284
Np	10.986700	-6.056420	-1.211284
O	6.022578	-3.713854	-1.131282
O	6.184854	-6.136422	-3.553849
O	8.464067	-6.136422	-1.291285
O	3.581098	-3.553852	-3.553849
O	8.626343	-1.131285	-1.131282
O	8.626343	-3.713854	-3.713852
O	6.022578	-1.131285	-3.713852
O	11.067833	-3.553852	-1.291285
Hf	9.765952	0.000000	0.000000
Hf	12.207441	-2.422567	-2.422567
Np	8.545207	-1.211284	-3.633851
Np	10.986696	1.211284	-3.633851
Np	13.428186	1.211284	-1.211284
Np	15.869676	-1.211284	-1.211284
O	10.905553	1.131282	-1.131282
O	11.067829	-1.291285	-3.553849
O	13.347043	-1.291285	-1.291285
O	8.464074	1.291285	-3.553849
O	13.509319	3.713852	-1.131282
O	13.509319	1.131282	-3.713852
O	10.905553	3.713852	-3.713852
O	15.950809	1.291285	-1.291285
Hf	0.000000	-4.845137	-4.845137
Hf	2.441490	-7.267704	-7.267704
Np	-1.220745	-6.056420	-8.478987
Np	1.220745	-3.633853	-8.478987
Np	3.662234	-3.633853	-6.056420
Np	6.103724	-6.056420	-6.056420
O	1.139602	-3.713854	-5.976419
O	1.301878	-6.136422	-8.398986
O	3.581091	-6.136422	-6.136422
O	-1.301878	-3.553852	-8.398986
O	3.743367	-1.131285	-5.976419
O	3.743367	-3.713854	-8.558989
O	1.139602	-1.131285	-8.558989
O	6.184857	-3.553852	-6.136422
Hf	4.882976	0.000000	-4.845137
Hf	7.324465	-2.422567	-7.267704
Np	3.662231	-1.211284	-8.478987
Np	6.103721	1.211284	-8.478987
Np	8.545210	1.211284	-6.056420
Np	10.986700	-1.211284	-6.056420
O	6.022578	1.131282	-5.976419
O	6.184854	-1.291285	-8.398986
O	8.464067	-1.291285	-6.136422
O	3.581098	1.291285	-8.398986
O	8.626343	3.713852	-5.976419
O	8.626343	1.131282	-8.558989
O	6.022578	3.713852	-8.558989
O	11.067833	1.291285	-6.136422
