40

Lu	2.071420	2.071420	2.071420
Mo	0.000000	0.000000	0.000000
O	2.071420	2.071420	0.000000
O	0.000000	2.071420	2.071420
O	2.071420	0.000000	2.071420
Lu	2.071420	2.071420	6.214258
Mo	0.000000	0.000000	4.142838
O	2.071420	2.071420	4.142838
O	0.000000	2.071420	6.214258
O	2.071420	0.000000	6.214258
Lu	2.071420	6.214258	2.071420
Mo	0.000000	4.142838	0.000000
O	2.071420	6.214258	0.000000
O	0.000000	6.214258	2.071420
O	2.071420	4.142838	2.071420
Lu	2.071420	6.214258	6.214258
Mo	0.000000	4.142838	4.142838
O	2.071420	6.214258	4.142838
O	0.000000	6.214258	6.214258
O	2.071420	4.142838	6.214258
Lu	6.214258	2.071420	2.071420
Mo	4.142838	0.000000	0.000000
O	6.214258	2.071420	0.000000
O	4.142838	2.071420	2.071420
O	6.214258	0.000000	2.071420
Lu	6.214258	2.071420	6.214258
Mo	4.142838	0.000000	4.142838
O	6.214258	2.071420	4.142838
O	4.142838	2.071420	6.214258
O	6.214258	0.000000	6.214258
Lu	6.214258	6.214258	2.071420
Mo	4.142838	4.142838	0.000000
O	6.214258	6.214258	0.000000
O	4.142838	6.214258	2.071420
O	6.214258	4.142838	2.071420
Lu	6.214258	6.214258	6.214258
Mo	4.142838	4.142838	4.142838
O	6.214258	6.214258	4.142838
O	4.142838	6.214258	6.214258
O	6.214258	4.142838	6.214258
