40

Np	0.000000	0.000000	0.000000
O	1.998670	1.998670	0.000000
O	0.000000	1.998670	1.998670
O	1.998670	0.000000	1.998670
W	1.998670	1.998670	1.998670
Np	0.000000	0.000000	3.997343
O	1.998670	1.998670	3.997343
O	0.000000	1.998670	5.996013
O	1.998670	0.000000	5.996013
W	1.998670	1.998670	5.996013
Np	0.000000	3.997343	0.000000
O	1.998670	5.996013	0.000000
O	0.000000	5.996013	1.998670
O	1.998670	3.997343	1.998670
W	1.998670	5.996013	1.998670
Np	0.000000	3.997343	3.997343
O	1.998670	5.996013	3.997343
O	0.000000	5.996013	5.996013
O	1.998670	3.997343	5.996013
W	1.998670	5.996013	5.996013
Np	3.997343	0.000000	0.000000
O	5.996013	1.998670	0.000000
O	3.997343	1.998670	1.998670
O	5.996013	0.000000	1.998670
W	5.996013	1.998670	1.998670
Np	3.997343	0.000000	3.997343
O	5.996013	1.998670	3.997343
O	3.997343	1.998670	5.996013
O	5.996013	0.000000	5.996013
W	5.996013	1.998670	5.996013
Np	3.997343	3.997343	0.000000
O	5.996013	5.996013	0.000000
O	3.997343	5.996013	1.998670
O	5.996013	3.997343	1.998670
W	5.996013	5.996013	1.998670
Np	3.997343	3.997343	3.997343
O	5.996013	5.996013	3.997343
O	3.997343	5.996013	5.996013
O	5.996013	3.997343	5.996013
W	5.996013	5.996013	5.996013
