40

B	0.000000	0.000000	0.000000
O	0.000000	2.089245	2.089245
O	2.089245	0.000000	2.089245
O	2.089245	2.089245	0.000000
Zr	2.089245	2.089245	2.089245
B	0.000000	0.000000	4.178491
O	0.000000	2.089245	6.267736
O	2.089245	0.000000	6.267736
O	2.089245	2.089245	4.178491
Zr	2.089245	2.089245	6.267736
B	0.000000	4.178491	0.000000
O	0.000000	6.267736	2.089245
O	2.089245	4.178491	2.089245
O	2.089245	6.267736	0.000000
Zr	2.089245	6.267736	2.089245
B	0.000000	4.178491	4.178491
O	0.000000	6.267736	6.267736
O	2.089245	4.178491	6.267736
O	2.089245	6.267736	4.178491
Zr	2.089245	6.267736	6.267736
B	4.178491	0.000000	0.000000
O	4.178491	2.089245	2.089245
O	6.267736	0.000000	2.089245
O	6.267736	2.089245	0.000000
Zr	6.267736	2.089245	2.089245
B	4.178491	0.000000	4.178491
O	4.178491	2.089245	6.267736
O	6.267736	0.000000	6.267736
O	6.267736	2.089245	4.178491
Zr	6.267736	2.089245	6.267736
B	4.178491	4.178491	0.000000
O	4.178491	6.267736	2.089245
O	6.267736	4.178491	2.089245
O	6.267736	6.267736	0.000000
Zr	6.267736	6.267736	2.089245
B	4.178491	4.178491	4.178491
O	4.178491	6.267736	6.267736
O	6.267736	4.178491	6.267736
O	6.267736	6.267736	4.178491
Zr	6.267736	6.267736	6.267736
