40

As	0.000000	0.000000	0.000000
Cl	1.958639	1.958639	1.958639
O	0.000000	1.958639	1.958639
O	1.958639	0.000000	1.958639
O	1.958639	1.958639	0.000000
As	0.000000	0.000000	3.917278
Cl	1.958639	1.958639	5.875917
O	0.000000	1.958639	5.875917
O	1.958639	0.000000	5.875917
O	1.958639	1.958639	3.917278
As	0.000000	3.917278	0.000000
Cl	1.958639	5.875917	1.958639
O	0.000000	5.875917	1.958639
O	1.958639	3.917278	1.958639
O	1.958639	5.875917	0.000000
As	0.000000	3.917278	3.917278
Cl	1.958639	5.875917	5.875917
O	0.000000	5.875917	5.875917
O	1.958639	3.917278	5.875917
O	1.958639	5.875917	3.917278
As	3.917278	0.000000	0.000000
Cl	5.875917	1.958639	1.958639
O	3.917278	1.958639	1.958639
O	5.875917	0.000000	1.958639
O	5.875917	1.958639	0.000000
As	3.917278	0.000000	3.917278
Cl	5.875917	1.958639	5.875917
O	3.917278	1.958639	5.875917
O	5.875917	0.000000	5.875917
O	5.875917	1.958639	3.917278
As	3.917278	3.917278	0.000000
Cl	5.875917	5.875917	1.958639
O	3.917278	5.875917	1.958639
O	5.875917	3.917278	1.958639
O	5.875917	5.875917	0.000000
As	3.917278	3.917278	3.917278
Cl	5.875917	5.875917	5.875917
O	3.917278	5.875917	5.875917
O	5.875917	3.917278	5.875917
O	5.875917	5.875917	3.917278
