40

Er	0.000000	0.000000	0.000000
O	2.125830	0.000000	2.125830
O	0.000000	2.125830	2.125830
O	2.125830	2.125830	0.000000
Y	2.125830	2.125830	2.125830
Er	0.000000	0.000000	4.251643
O	2.125830	0.000000	6.377473
O	0.000000	2.125830	6.377473
O	2.125830	2.125830	4.251643
Y	2.125830	2.125830	6.377473
Er	0.000000	4.251643	0.000000
O	2.125830	4.251643	2.125830
O	0.000000	6.377473	2.125830
O	2.125830	6.377473	0.000000
Y	2.125830	6.377473	2.125830
Er	0.000000	4.251643	4.251643
O	2.125830	4.251643	6.377473
O	0.000000	6.377473	6.377473
O	2.125830	6.377473	4.251643
Y	2.125830	6.377473	6.377473
Er	4.251643	0.000000	0.000000
O	6.377473	0.000000	2.125830
O	4.251643	2.125830	2.125830
O	6.377473	2.125830	0.000000
Y	6.377473	2.125830	2.125830
Er	4.251643	0.000000	4.251643
O	6.377473	0.000000	6.377473
O	4.251643	2.125830	6.377473
O	6.377473	2.125830	4.251643
Y	6.377473	2.125830	6.377473
Er	4.251643	4.251643	0.000000
O	6.377473	4.251643	2.125830
O	4.251643	6.377473	2.125830
O	6.377473	6.377473	0.000000
Y	6.377473	6.377473	2.125830
Er	4.251643	4.251643	4.251643
O	6.377473	4.251643	6.377473
O	4.251643	6.377473	6.377473
O	6.377473	6.377473	4.251643
Y	6.377473	6.377473	6.377473
