112

Er	0.000000	0.000000	0.000000
Er	2.225119	-2.226253	-2.226253
O	3.455837	-0.994218	-0.994218
O	-0.994401	0.994218	-3.458288
O	0.994401	-0.994218	-3.458288
O	1.230718	1.232035	-1.232035
O	5.444639	0.994218	-0.994218
O	1.230718	3.220471	-3.220471
O	3.219520	3.220471	-1.232035
O	3.219520	1.232035	-3.220471
Ru	-1.112559	-1.113126	-3.339379
Ru	3.337678	1.113126	-1.113126
Ru	5.562797	-1.113126	-1.113126
Ru	1.112559	1.113126	-3.339379
Er	4.450238	4.452506	0.000000
Er	6.675357	2.226253	-2.226253
O	7.906074	3.458288	-0.994218
O	3.455837	5.446723	-3.458288
O	5.444639	3.458288	-3.458288
O	5.680956	5.684541	-1.232035
O	9.894877	5.446723	-0.994218
O	5.680956	7.672976	-3.220471
O	7.669758	7.672976	-1.232035
O	7.669758	5.684541	-3.220471
Ru	3.337678	3.339379	-3.339379
Ru	7.787916	5.565632	-1.113126
Ru	10.013035	3.339379	-1.113126
Ru	5.562797	5.565632	-3.339379
Er	-4.450238	0.000000	-4.452506
Er	-2.225119	-2.226253	-6.678759
O	-0.994401	-0.994218	-5.446723
O	-5.444639	0.994218	-7.910794
O	-3.455837	-0.994218	-7.910794
O	-3.219520	1.232035	-5.684541
O	0.994401	0.994218	-5.446723
O	-3.219520	3.220471	-7.672976
O	-1.230718	3.220471	-5.684541
O	-1.230718	1.232035	-7.672976
Ru	-5.562797	-1.113126	-7.791885
Ru	-1.112559	1.113126	-5.565632
Ru	1.112559	-1.113126	-5.565632
Ru	-3.337678	1.113126	-7.791885
Er	0.000000	4.452506	-4.452506
Er	2.225119	2.226253	-6.678759
O	3.455837	3.458288	-5.446723
O	-0.994401	5.446723	-7.910794
O	0.994401	3.458288	-7.910794
O	1.230718	5.684541	-5.684541
O	5.444639	5.446723	-5.446723
O	1.230718	7.672976	-7.672976
O	3.219520	7.672976	-5.684541
O	3.219520	5.684541	-7.672976
Ru	-1.112559	3.339379	-7.791885
Ru	3.337678	5.565632	-5.565632
Ru	5.562797	3.339379	-5.565632
Ru	1.112559	5.565632	-7.791885
Er	4.450238	-4.452506	0.000000
Er	6.675357	-6.678759	-2.226253
O	7.906074	-5.446723	-0.994218
O	3.455837	-3.458288	-3.458288
O	5.444639	-5.446723	-3.458288
O	5.680956	-3.220471	-1.232035
O	9.894877	-3.458288	-0.994218
O	5.680956	-1.232035	-3.220471
O	7.669758	-1.232035	-1.232035
O	7.669758	-3.220471	-3.220471
Ru	3.337678	-5.565632	-3.339379
Ru	7.787916	-3.339379	-1.113126
Ru	10.013035	-5.565632	-1.113126
Ru	5.562797	-3.339379	-3.339379
Er	8.900476	0.000000	0.000000
Er	11.125594	-2.226253	-2.226253
O	12.356312	-0.994218	-0.994218
O	7.906074	0.994218	-3.458288
O	9.894877	-0.994218	-3.458288
O	10.131193	1.232035	-1.232035
O	14.345115	0.994218	-0.994218
O	10.131193	3.220471	-3.220471
O	12.119996	3.220471	-1.232035
O	12.119996	1.232035	-3.220471
Ru	7.787916	-1.113126	-3.339379
Ru	12.238154	1.113126	-1.113126
Ru	14.463273	-1.113126	-1.113126
Ru	10.013035	1.113126	-3.339379
Er	0.000000	-4.452506	-4.452506
Er	2.225119	-6.678759	-6.678759
O	3.455837	-5.446723	-5.446723
O	-0.994401	-3.458288	-7.910794
O	0.994401	-5.446723	-7.910794
O	1.230718	-3.220471	-5.684541
O	5.444639	-3.458288	-5.446723
O	1.230718	-1.232035	-7.672976
O	3.219520	-1.232035	-5.684541
O	3.219520	-3.220471	-7.672976
Ru	-1.112559	-5.565632	-7.791885
Ru	3.337678	-3.339379	-5.565632
Ru	5.562797	-5.565632	-5.565632
Ru	1.112559	-3.339379	-7.791885
Er	4.450238	0.000000	-4.452506
Er	6.675357	-2.226253	-6.678759
O	7.906074	-0.994218	-5.446723
O	3.455837	0.994218	-7.910794
O	5.444639	-0.994218	-7.910794
O	5.680956	1.232035	-5.684541
O	9.894877	0.994218	-5.446723
O	5.680956	3.220471	-7.672976
O	7.669758	3.220471	-5.684541
O	7.669758	1.232035	-7.672976
Ru	3.337678	-1.113126	-7.791885
Ru	7.787916	1.113126	-5.565632
Ru	10.013035	-1.113126	-5.565632
Ru	5.562797	1.113126	-7.791885
