40

Au	0.000000	0.000000	0.000000
O	0.000000	1.996886	1.996886
O	1.996886	0.000000	1.996886
O	1.996886	1.996886	0.000000
Sb	1.996886	1.996886	1.996886
Au	0.000000	0.000000	3.993773
O	0.000000	1.996886	5.990659
O	1.996886	0.000000	5.990659
O	1.996886	1.996886	3.993773
Sb	1.996886	1.996886	5.990659
Au	0.000000	3.993773	0.000000
O	0.000000	5.990659	1.996886
O	1.996886	3.993773	1.996886
O	1.996886	5.990659	0.000000
Sb	1.996886	5.990659	1.996886
Au	0.000000	3.993773	3.993773
O	0.000000	5.990659	5.990659
O	1.996886	3.993773	5.990659
O	1.996886	5.990659	3.993773
Sb	1.996886	5.990659	5.990659
Au	3.993773	0.000000	0.000000
O	3.993773	1.996886	1.996886
O	5.990659	0.000000	1.996886
O	5.990659	1.996886	0.000000
Sb	5.990659	1.996886	1.996886
Au	3.993773	0.000000	3.993773
O	3.993773	1.996886	5.990659
O	5.990659	0.000000	5.990659
O	5.990659	1.996886	3.993773
Sb	5.990659	1.996886	5.990659
Au	3.993773	3.993773	0.000000
O	3.993773	5.990659	1.996886
O	5.990659	3.993773	1.996886
O	5.990659	5.990659	0.000000
Sb	5.990659	5.990659	1.996886
Au	3.993773	3.993773	3.993773
O	3.993773	5.990659	5.990659
O	5.990659	3.993773	5.990659
O	5.990659	5.990659	3.993773
Sb	5.990659	5.990659	5.990659
