40

Au	0.000000	0.000000	0.000000
O	2.005397	2.005397	0.000000
O	2.005397	0.000000	2.005397
O	0.000000	2.005397	2.005397
Sb	2.005397	2.005397	2.005397
Au	0.000000	0.000000	4.010793
O	2.005397	2.005397	4.010793
O	2.005397	0.000000	6.016190
O	0.000000	2.005397	6.016190
Sb	2.005397	2.005397	6.016190
Au	0.000000	4.010793	0.000000
O	2.005397	6.016190	0.000000
O	2.005397	4.010793	2.005397
O	0.000000	6.016190	2.005397
Sb	2.005397	6.016190	2.005397
Au	0.000000	4.010793	4.010793
O	2.005397	6.016190	4.010793
O	2.005397	4.010793	6.016190
O	0.000000	6.016190	6.016190
Sb	2.005397	6.016190	6.016190
Au	4.010793	0.000000	0.000000
O	6.016190	2.005397	0.000000
O	6.016190	0.000000	2.005397
O	4.010793	2.005397	2.005397
Sb	6.016190	2.005397	2.005397
Au	4.010793	0.000000	4.010793
O	6.016190	2.005397	4.010793
O	6.016190	0.000000	6.016190
O	4.010793	2.005397	6.016190
Sb	6.016190	2.005397	6.016190
Au	4.010793	4.010793	0.000000
O	6.016190	6.016190	0.000000
O	6.016190	4.010793	2.005397
O	4.010793	6.016190	2.005397
Sb	6.016190	6.016190	2.005397
Au	4.010793	4.010793	4.010793
O	6.016190	6.016190	4.010793
O	6.016190	4.010793	6.016190
O	4.010793	6.016190	6.016190
Sb	6.016190	6.016190	6.016190
