40

O	1.945213	1.945213	0.000000
O	1.945213	0.000000	1.945213
O	0.000000	1.945213	1.945213
Pt	0.000000	0.000000	0.000000
Ru	1.945213	1.945213	1.945213
O	1.945213	1.945213	3.890426
O	1.945213	0.000000	5.835638
O	0.000000	1.945213	5.835638
Pt	0.000000	0.000000	3.890426
Ru	1.945213	1.945213	5.835638
O	1.945213	5.835638	0.000000
O	1.945213	3.890426	1.945213
O	0.000000	5.835638	1.945213
Pt	0.000000	3.890426	0.000000
Ru	1.945213	5.835638	1.945213
O	1.945213	5.835638	3.890426
O	1.945213	3.890426	5.835638
O	0.000000	5.835638	5.835638
Pt	0.000000	3.890426	3.890426
Ru	1.945213	5.835638	5.835638
O	5.835638	1.945213	0.000000
O	5.835638	0.000000	1.945213
O	3.890426	1.945213	1.945213
Pt	3.890426	0.000000	0.000000
Ru	5.835638	1.945213	1.945213
O	5.835638	1.945213	3.890426
O	5.835638	0.000000	5.835638
O	3.890426	1.945213	5.835638
Pt	3.890426	0.000000	3.890426
Ru	5.835638	1.945213	5.835638
O	5.835638	5.835638	0.000000
O	5.835638	3.890426	1.945213
O	3.890426	5.835638	1.945213
Pt	3.890426	3.890426	0.000000
Ru	5.835638	5.835638	1.945213
O	5.835638	5.835638	3.890426
O	5.835638	3.890426	5.835638
O	3.890426	5.835638	5.835638
Pt	3.890426	3.890426	3.890426
Ru	5.835638	5.835638	5.835638
