40

O	0.000000	1.987224	1.987224
O	1.987224	0.000000	1.987224
O	1.987224	1.987224	0.000000
Pt	1.987224	1.987224	1.987224
Ru	0.000000	0.000000	0.000000
O	0.000000	1.987224	5.961672
O	1.987224	0.000000	5.961672
O	1.987224	1.987224	3.974448
Pt	1.987224	1.987224	5.961672
Ru	0.000000	0.000000	3.974448
O	0.000000	5.961672	1.987224
O	1.987224	3.974448	1.987224
O	1.987224	5.961672	0.000000
Pt	1.987224	5.961672	1.987224
Ru	0.000000	3.974448	0.000000
O	0.000000	5.961672	5.961672
O	1.987224	3.974448	5.961672
O	1.987224	5.961672	3.974448
Pt	1.987224	5.961672	5.961672
Ru	0.000000	3.974448	3.974448
O	3.974448	1.987224	1.987224
O	5.961672	0.000000	1.987224
O	5.961672	1.987224	0.000000
Pt	5.961672	1.987224	1.987224
Ru	3.974448	0.000000	0.000000
O	3.974448	1.987224	5.961672
O	5.961672	0.000000	5.961672
O	5.961672	1.987224	3.974448
Pt	5.961672	1.987224	5.961672
Ru	3.974448	0.000000	3.974448
O	3.974448	5.961672	1.987224
O	5.961672	3.974448	1.987224
O	5.961672	5.961672	0.000000
Pt	5.961672	5.961672	1.987224
Ru	3.974448	3.974448	0.000000
O	3.974448	5.961672	5.961672
O	5.961672	3.974448	5.961672
O	5.961672	5.961672	3.974448
Pt	5.961672	5.961672	5.961672
Ru	3.974448	3.974448	3.974448
