112

Cu	0.000000	0.000000	0.000000
Cu	2.431739	-2.432256	-2.432256
K	-1.215865	-1.216128	-3.648383
K	1.215865	1.216128	-3.648383
K	3.647604	1.216128	-1.216128
K	6.079343	-1.216128	-1.216128
O	1.002435	1.003185	-1.003185
O	-1.429295	1.429071	-3.435431
O	3.434174	-1.429071	-1.429071
O	1.429295	-1.429071	-3.435431
O	1.002435	3.861326	-3.861326
O	3.861034	3.861326	-1.003185
O	3.861034	1.003185	-3.861326
O	6.292773	1.429071	-1.429071
Cu	4.863473	4.864507	0.000000
Cu	7.295212	2.432252	-2.432256
K	3.647608	3.648380	-3.648383
K	6.079337	6.080635	-3.648383
K	8.511077	6.080635	-1.216128
K	10.942816	3.648380	-1.216128
O	5.865907	5.867692	-1.003185
O	3.434178	6.293578	-3.435431
O	8.297647	3.435437	-1.429071
O	6.292768	3.435437	-3.435431
O	5.865907	8.725834	-3.861326
O	8.724507	8.725834	-1.003185
O	8.724507	5.867692	-3.861326
O	11.156246	6.293578	-1.429071
Cu	-4.863473	0.000000	-4.864507
Cu	-2.431734	-2.432256	-7.296763
K	-6.079337	-1.216128	-8.512891
K	-3.647608	1.216128	-8.512891
K	-1.215869	1.216128	-6.080635
K	1.215870	-1.216128	-6.080635
O	-3.861038	1.003185	-5.867692
O	-6.292768	1.429071	-8.299938
O	-1.429299	-1.429071	-6.293578
O	-3.434178	-1.429071	-8.299938
O	-3.861038	3.861326	-8.725834
O	-1.002439	3.861326	-5.867692
O	-1.002439	1.003185	-8.725834
O	1.429300	1.429071	-6.293578
Cu	0.000000	4.864507	-4.864507
Cu	2.431739	2.432252	-7.296763
K	-1.215865	3.648380	-8.512891
K	1.215865	6.080635	-8.512891
K	3.647604	6.080635	-6.080635
K	6.079343	3.648380	-6.080635
O	1.002435	5.867692	-5.867692
O	-1.429295	6.293578	-8.299938
O	3.434174	3.435437	-6.293578
O	1.429295	3.435437	-8.299938
O	1.002435	8.725834	-8.725834
O	3.861034	8.725834	-5.867692
O	3.861034	5.867692	-8.725834
O	6.292773	6.293578	-6.293578
Cu	4.863473	-4.864507	0.000000
Cu	7.295212	-7.296763	-2.432256
K	3.647608	-6.080635	-3.648383
K	6.079337	-3.648380	-3.648383
K	8.511077	-3.648380	-1.216128
K	10.942816	-6.080635	-1.216128
O	5.865907	-3.861322	-1.003185
O	3.434178	-3.435437	-3.435431
O	8.297647	-6.293578	-1.429071
O	6.292768	-6.293578	-3.435431
O	5.865907	-1.003181	-3.861326
O	8.724507	-1.003181	-1.003185
O	8.724507	-3.861322	-3.861326
O	11.156246	-3.435437	-1.429071
Cu	9.726946	0.000000	0.000000
Cu	12.158685	-2.432256	-2.432256
K	8.511081	-1.216128	-3.648383
K	10.942810	1.216128	-3.648383
K	13.374550	1.216128	-1.216128
K	15.806289	-1.216128	-1.216128
O	10.729380	1.003185	-1.003185
O	8.297651	1.429071	-3.435431
O	13.161119	-1.429071	-1.429071
O	11.156240	-1.429071	-3.435431
O	10.729380	3.861326	-3.861326
O	13.587980	3.861326	-1.003185
O	13.587980	1.003185	-3.861326
O	16.019719	1.429071	-1.429071
Cu	0.000000	-4.864507	-4.864507
Cu	2.431739	-7.296763	-7.296763
K	-1.215865	-6.080635	-8.512891
K	1.215865	-3.648380	-8.512891
K	3.647604	-3.648380	-6.080635
K	6.079343	-6.080635	-6.080635
O	1.002435	-3.861322	-5.867692
O	-1.429295	-3.435437	-8.299938
O	3.434174	-6.293578	-6.293578
O	1.429295	-6.293578	-8.299938
O	1.002435	-1.003181	-8.725834
O	3.861034	-1.003181	-5.867692
O	3.861034	-3.861322	-8.725834
O	6.292773	-3.435437	-6.293578
Cu	4.863473	0.000000	-4.864507
Cu	7.295212	-2.432256	-7.296763
K	3.647608	-1.216128	-8.512891
K	6.079337	1.216128	-8.512891
K	8.511077	1.216128	-6.080635
K	10.942816	-1.216128	-6.080635
O	5.865907	1.003185	-5.867692
O	3.434178	1.429071	-8.299938
O	8.297647	-1.429071	-6.293578
O	6.292768	-1.429071	-8.299938
O	5.865907	3.861326	-8.725834
O	8.724507	3.861326	-5.867692
O	8.724507	1.003185	-8.725834
O	11.156246	1.429071	-6.293578
