40

O	1.941050	1.941050	0.000000
O	0.000000	1.941050	1.941050
O	1.941050	0.000000	1.941050
Sb	0.000000	0.000000	0.000000
V	1.941050	1.941050	1.941050
O	1.941050	1.941050	3.882101
O	0.000000	1.941050	5.823151
O	1.941050	0.000000	5.823151
Sb	0.000000	0.000000	3.882101
V	1.941050	1.941050	5.823151
O	1.941050	5.823151	0.000000
O	0.000000	5.823151	1.941050
O	1.941050	3.882101	1.941050
Sb	0.000000	3.882101	0.000000
V	1.941050	5.823151	1.941050
O	1.941050	5.823151	3.882101
O	0.000000	5.823151	5.823151
O	1.941050	3.882101	5.823151
Sb	0.000000	3.882101	3.882101
V	1.941050	5.823151	5.823151
O	5.823151	1.941050	0.000000
O	3.882101	1.941050	1.941050
O	5.823151	0.000000	1.941050
Sb	3.882101	0.000000	0.000000
V	5.823151	1.941050	1.941050
O	5.823151	1.941050	3.882101
O	3.882101	1.941050	5.823151
O	5.823151	0.000000	5.823151
Sb	3.882101	0.000000	3.882101
V	5.823151	1.941050	5.823151
O	5.823151	5.823151	0.000000
O	3.882101	5.823151	1.941050
O	5.823151	3.882101	1.941050
Sb	3.882101	3.882101	0.000000
V	5.823151	5.823151	1.941050
O	5.823151	5.823151	3.882101
O	3.882101	5.823151	5.823151
O	5.823151	3.882101	5.823151
Sb	3.882101	3.882101	3.882101
V	5.823151	5.823151	5.823151
