40

La	2.252315	2.252315	2.252315
Na	0.000000	0.000000	0.000000
O	2.252315	2.252315	0.000000
O	2.252315	0.000000	2.252315
O	0.000000	2.252315	2.252315
La	2.252315	2.252315	6.756942
Na	0.000000	0.000000	4.504627
O	2.252315	2.252315	4.504627
O	2.252315	0.000000	6.756942
O	0.000000	2.252315	6.756942
La	2.252315	6.756942	2.252315
Na	0.000000	4.504627	0.000000
O	2.252315	6.756942	0.000000
O	2.252315	4.504627	2.252315
O	0.000000	6.756942	2.252315
La	2.252315	6.756942	6.756942
Na	0.000000	4.504627	4.504627
O	2.252315	6.756942	4.504627
O	2.252315	4.504627	6.756942
O	0.000000	6.756942	6.756942
La	6.756942	2.252315	2.252315
Na	4.504627	0.000000	0.000000
O	6.756942	2.252315	0.000000
O	6.756942	0.000000	2.252315
O	4.504627	2.252315	2.252315
La	6.756942	2.252315	6.756942
Na	4.504627	0.000000	4.504627
O	6.756942	2.252315	4.504627
O	6.756942	0.000000	6.756942
O	4.504627	2.252315	6.756942
La	6.756942	6.756942	2.252315
Na	4.504627	4.504627	0.000000
O	6.756942	6.756942	0.000000
O	6.756942	4.504627	2.252315
O	4.504627	6.756942	2.252315
La	6.756942	6.756942	6.756942
Na	4.504627	4.504627	4.504627
O	6.756942	6.756942	4.504627
O	6.756942	4.504627	6.756942
O	4.504627	6.756942	6.756942
