40

K	0.000000	0.000000	0.000000
N	1.899965	1.899965	1.899965
O	0.000000	1.899965	1.899965
O	1.899965	0.000000	1.899965
O	1.899965	1.899965	0.000000
K	0.000000	0.000000	3.799930
N	1.899965	1.899965	5.699895
O	0.000000	1.899965	5.699895
O	1.899965	0.000000	5.699895
O	1.899965	1.899965	3.799930
K	0.000000	3.799930	0.000000
N	1.899965	5.699895	1.899965
O	0.000000	5.699895	1.899965
O	1.899965	3.799930	1.899965
O	1.899965	5.699895	0.000000
K	0.000000	3.799930	3.799930
N	1.899965	5.699895	5.699895
O	0.000000	5.699895	5.699895
O	1.899965	3.799930	5.699895
O	1.899965	5.699895	3.799930
K	3.799930	0.000000	0.000000
N	5.699895	1.899965	1.899965
O	3.799930	1.899965	1.899965
O	5.699895	0.000000	1.899965
O	5.699895	1.899965	0.000000
K	3.799930	0.000000	3.799930
N	5.699895	1.899965	5.699895
O	3.799930	1.899965	5.699895
O	5.699895	0.000000	5.699895
O	5.699895	1.899965	3.799930
K	3.799930	3.799930	0.000000
N	5.699895	5.699895	1.899965
O	3.799930	5.699895	1.899965
O	5.699895	3.799930	1.899965
O	5.699895	5.699895	0.000000
K	3.799930	3.799930	3.799930
N	5.699895	5.699895	5.699895
O	3.799930	5.699895	5.699895
O	5.699895	3.799930	5.699895
O	5.699895	5.699895	3.799930
