40

K	2.673663	2.673663	2.673663
N	0.000000	0.000000	0.000000
O	0.000000	2.673663	2.673663
O	2.673663	0.000000	2.673663
O	2.673663	2.673663	0.000000
K	2.673663	2.673663	8.020988
N	0.000000	0.000000	5.347325
O	0.000000	2.673663	8.020988
O	2.673663	0.000000	8.020988
O	2.673663	2.673663	5.347325
K	2.673663	8.020988	2.673663
N	0.000000	5.347325	0.000000
O	0.000000	8.020988	2.673663
O	2.673663	5.347325	2.673663
O	2.673663	8.020988	0.000000
K	2.673663	8.020988	8.020988
N	0.000000	5.347325	5.347325
O	0.000000	8.020988	8.020988
O	2.673663	5.347325	8.020988
O	2.673663	8.020988	5.347325
K	8.020988	2.673663	2.673663
N	5.347325	0.000000	0.000000
O	5.347325	2.673663	2.673663
O	8.020988	0.000000	2.673663
O	8.020988	2.673663	0.000000
K	8.020988	2.673663	8.020988
N	5.347325	0.000000	5.347325
O	5.347325	2.673663	8.020988
O	8.020988	0.000000	8.020988
O	8.020988	2.673663	5.347325
K	8.020988	8.020988	2.673663
N	5.347325	5.347325	0.000000
O	5.347325	8.020988	2.673663
O	8.020988	5.347325	2.673663
O	8.020988	8.020988	0.000000
K	8.020988	8.020988	8.020988
N	5.347325	5.347325	5.347325
O	5.347325	8.020988	8.020988
O	8.020988	5.347325	8.020988
O	8.020988	8.020988	5.347325
