40

O	2.049225	2.049225	0.000000
O	0.000000	2.049225	2.049225
O	2.049225	0.000000	2.049225
Sn	2.049225	2.049225	2.049225
Tb	0.000000	0.000000	0.000000
O	2.049225	2.049225	4.098450
O	0.000000	2.049225	6.147675
O	2.049225	0.000000	6.147675
Sn	2.049225	2.049225	6.147675
Tb	0.000000	0.000000	4.098450
O	2.049225	6.147675	0.000000
O	0.000000	6.147675	2.049225
O	2.049225	4.098450	2.049225
Sn	2.049225	6.147675	2.049225
Tb	0.000000	4.098450	0.000000
O	2.049225	6.147675	4.098450
O	0.000000	6.147675	6.147675
O	2.049225	4.098450	6.147675
Sn	2.049225	6.147675	6.147675
Tb	0.000000	4.098450	4.098450
O	6.147675	2.049225	0.000000
O	4.098450	2.049225	2.049225
O	6.147675	0.000000	2.049225
Sn	6.147675	2.049225	2.049225
Tb	4.098450	0.000000	0.000000
O	6.147675	2.049225	4.098450
O	4.098450	2.049225	6.147675
O	6.147675	0.000000	6.147675
Sn	6.147675	2.049225	6.147675
Tb	4.098450	0.000000	4.098450
O	6.147675	6.147675	0.000000
O	4.098450	6.147675	2.049225
O	6.147675	4.098450	2.049225
Sn	6.147675	6.147675	2.049225
Tb	4.098450	4.098450	0.000000
O	6.147675	6.147675	4.098450
O	4.098450	6.147675	6.147675
O	6.147675	4.098450	6.147675
Sn	6.147675	6.147675	6.147675
Tb	4.098450	4.098450	4.098450
