112

O	-0.982627	0.982173	-3.639220
O	3.637519	-0.982173	-0.982173
O	0.982627	-0.982173	-3.639220
O	1.327446	1.328524	-1.328524
O	5.602782	0.982173	-0.982173
O	1.327446	3.292879	-3.292879
O	3.292710	3.292879	-1.328524
O	3.292710	1.328524	-3.292879
Sr	0.000000	0.000000	0.000000
Sr	2.310073	-2.310696	-2.310696
Ta	-1.155036	-1.155348	-3.466054
Ta	3.465109	1.155348	-1.155348
Ta	5.775182	-1.155348	-1.155348
Ta	1.155036	1.155348	-3.466054
O	3.637521	5.603574	-3.639220
O	8.257666	3.639229	-0.982173
O	5.602774	3.639229	-3.639220
O	5.947594	5.949925	-1.328524
O	10.222930	5.603574	-0.982173
O	5.947594	7.914281	-3.292879
O	7.912857	7.914281	-1.328524
O	7.912857	5.949925	-3.292879
Sr	4.620147	4.621402	0.000000
Sr	6.930220	2.310705	-2.310696
Ta	3.465111	3.466054	-3.466054
Ta	8.085257	5.776750	-1.155348
Ta	10.395330	3.466053	-1.155348
Ta	5.775184	5.776750	-3.466054
O	-5.602774	0.982173	-8.260622
O	-0.982628	-0.982173	-5.603574
O	-3.637521	-0.982173	-8.260622
O	-3.292701	1.328524	-5.949925
O	0.982635	0.982173	-5.603574
O	-3.292701	3.292879	-7.914281
O	-1.327438	3.292879	-5.949925
O	-1.327438	1.328524	-7.914281
Sr	-4.620147	0.000000	-4.621402
Sr	-2.310074	-2.310696	-6.932098
Ta	-5.775184	-1.155348	-8.087456
Ta	-1.155038	1.155348	-5.776750
Ta	1.155035	-1.155348	-5.776750
Ta	-3.465111	1.155348	-8.087456
O	-0.982627	5.603574	-8.260622
O	3.637519	3.639229	-5.603574
O	0.982627	3.639229	-8.260622
O	1.327446	5.949925	-5.949925
O	5.602782	5.603574	-5.603574
O	1.327446	7.914281	-7.914281
O	3.292710	7.914281	-5.949925
O	3.292710	5.949925	-7.914281
Sr	0.000000	4.621402	-4.621402
Sr	2.310073	2.310705	-6.932098
Ta	-1.155036	3.466054	-8.087456
Ta	3.465109	5.776750	-5.776750
Ta	5.775182	3.466053	-5.776750
Ta	1.155036	5.776750	-8.087456
O	3.637521	-3.639229	-3.639220
O	8.257666	-5.603574	-0.982173
O	5.602774	-5.603574	-3.639220
O	5.947594	-3.292878	-1.328524
O	10.222930	-3.639229	-0.982173
O	5.947594	-1.328523	-3.292879
O	7.912857	-1.328523	-1.328524
O	7.912857	-3.292878	-3.292879
Sr	4.620147	-4.621402	0.000000
Sr	6.930220	-6.932098	-2.310696
Ta	3.465111	-5.776750	-3.466054
Ta	8.085257	-3.466054	-1.155348
Ta	10.395330	-5.776750	-1.155348
Ta	5.775184	-3.466054	-3.466054
O	8.257668	0.982173	-3.639220
O	12.877814	-0.982173	-0.982173
O	10.222921	-0.982173	-3.639220
O	10.567741	1.328524	-1.328524
O	14.843077	0.982173	-0.982173
O	10.567741	3.292879	-3.292879
O	12.533004	3.292879	-1.328524
O	12.533004	1.328524	-3.292879
Sr	9.240295	0.000000	0.000000
Sr	11.550368	-2.310696	-2.310696
Ta	8.085258	-1.155348	-3.466054
Ta	12.705404	1.155348	-1.155348
Ta	15.015477	-1.155348	-1.155348
Ta	10.395331	1.155348	-3.466054
O	-0.982627	-3.639229	-8.260622
O	3.637519	-5.603574	-5.603574
O	0.982627	-5.603574	-8.260622
O	1.327446	-3.292878	-5.949925
O	5.602782	-3.639229	-5.603574
O	1.327446	-1.328523	-7.914281
O	3.292710	-1.328523	-5.949925
O	3.292710	-3.292878	-7.914281
Sr	0.000000	-4.621402	-4.621402
Sr	2.310073	-6.932098	-6.932098
Ta	-1.155036	-5.776750	-8.087456
Ta	3.465109	-3.466054	-5.776750
Ta	5.775182	-5.776750	-5.776750
Ta	1.155036	-3.466054	-8.087456
O	3.637521	0.982173	-8.260622
O	8.257666	-0.982173	-5.603574
O	5.602774	-0.982173	-8.260622
O	5.947594	1.328524	-5.949925
O	10.222930	0.982173	-5.603574
O	5.947594	3.292879	-7.914281
O	7.912857	3.292879	-5.949925
O	7.912857	1.328524	-7.914281
Sr	4.620147	0.000000	-4.621402
Sr	6.930220	-2.310696	-6.932098
Ta	3.465111	-1.155348	-8.087456
Ta	8.085257	1.155348	-5.776750
Ta	10.395330	-1.155348	-5.776750
Ta	5.775184	1.155348	-8.087456
