40

O	0.000000	1.979712	1.979712
O	1.979712	0.000000	1.979712
O	1.979712	1.979712	0.000000
Pd	1.979712	1.979712	1.979712
Se	0.000000	0.000000	0.000000
O	0.000000	1.979712	5.939136
O	1.979712	0.000000	5.939136
O	1.979712	1.979712	3.959424
Pd	1.979712	1.979712	5.939136
Se	0.000000	0.000000	3.959424
O	0.000000	5.939136	1.979712
O	1.979712	3.959424	1.979712
O	1.979712	5.939136	0.000000
Pd	1.979712	5.939136	1.979712
Se	0.000000	3.959424	0.000000
O	0.000000	5.939136	5.939136
O	1.979712	3.959424	5.939136
O	1.979712	5.939136	3.959424
Pd	1.979712	5.939136	5.939136
Se	0.000000	3.959424	3.959424
O	3.959424	1.979712	1.979712
O	5.939136	0.000000	1.979712
O	5.939136	1.979712	0.000000
Pd	5.939136	1.979712	1.979712
Se	3.959424	0.000000	0.000000
O	3.959424	1.979712	5.939136
O	5.939136	0.000000	5.939136
O	5.939136	1.979712	3.959424
Pd	5.939136	1.979712	5.939136
Se	3.959424	0.000000	3.959424
O	3.959424	5.939136	1.979712
O	5.939136	3.959424	1.979712
O	5.939136	5.939136	0.000000
Pd	5.939136	5.939136	1.979712
Se	3.959424	3.959424	0.000000
O	3.959424	5.939136	5.939136
O	5.939136	3.959424	5.939136
O	5.939136	5.939136	3.959424
Pd	5.939136	5.939136	5.939136
Se	3.959424	3.959424	3.959424
