40

Bi	2.131840	2.131840	2.131840
O	2.131840	2.131840	0.000000
O	0.000000	2.131840	2.131840
O	2.131840	0.000000	2.131840
Tl	0.000000	0.000000	0.000000
Bi	2.131840	2.131840	6.395523
O	2.131840	2.131840	4.263683
O	0.000000	2.131840	6.395523
O	2.131840	0.000000	6.395523
Tl	0.000000	0.000000	4.263683
Bi	2.131840	6.395523	2.131840
O	2.131840	6.395523	0.000000
O	0.000000	6.395523	2.131840
O	2.131840	4.263683	2.131840
Tl	0.000000	4.263683	0.000000
Bi	2.131840	6.395523	6.395523
O	2.131840	6.395523	4.263683
O	0.000000	6.395523	6.395523
O	2.131840	4.263683	6.395523
Tl	0.000000	4.263683	4.263683
Bi	6.395523	2.131840	2.131840
O	6.395523	2.131840	0.000000
O	4.263683	2.131840	2.131840
O	6.395523	0.000000	2.131840
Tl	4.263683	0.000000	0.000000
Bi	6.395523	2.131840	6.395523
O	6.395523	2.131840	4.263683
O	4.263683	2.131840	6.395523
O	6.395523	0.000000	6.395523
Tl	4.263683	0.000000	4.263683
Bi	6.395523	6.395523	2.131840
O	6.395523	6.395523	0.000000
O	4.263683	6.395523	2.131840
O	6.395523	4.263683	2.131840
Tl	4.263683	4.263683	0.000000
Bi	6.395523	6.395523	6.395523
O	6.395523	6.395523	4.263683
O	4.263683	6.395523	6.395523
O	6.395523	4.263683	6.395523
Tl	4.263683	4.263683	4.263683
