40

B	0.000000	0.000000	0.000000
Be	1.667010	1.667010	1.667010
O	1.667010	0.000000	1.667010
O	0.000000	1.667010	1.667010
O	1.667010	1.667010	0.000000
B	0.000000	0.000000	3.334021
Be	1.667010	1.667010	5.001031
O	1.667010	0.000000	5.001031
O	0.000000	1.667010	5.001031
O	1.667010	1.667010	3.334021
B	0.000000	3.334021	0.000000
Be	1.667010	5.001031	1.667010
O	1.667010	3.334021	1.667010
O	0.000000	5.001031	1.667010
O	1.667010	5.001031	0.000000
B	0.000000	3.334021	3.334021
Be	1.667010	5.001031	5.001031
O	1.667010	3.334021	5.001031
O	0.000000	5.001031	5.001031
O	1.667010	5.001031	3.334021
B	3.334021	0.000000	0.000000
Be	5.001031	1.667010	1.667010
O	5.001031	0.000000	1.667010
O	3.334021	1.667010	1.667010
O	5.001031	1.667010	0.000000
B	3.334021	0.000000	3.334021
Be	5.001031	1.667010	5.001031
O	5.001031	0.000000	5.001031
O	3.334021	1.667010	5.001031
O	5.001031	1.667010	3.334021
B	3.334021	3.334021	0.000000
Be	5.001031	5.001031	1.667010
O	5.001031	3.334021	1.667010
O	3.334021	5.001031	1.667010
O	5.001031	5.001031	0.000000
B	3.334021	3.334021	3.334021
Be	5.001031	5.001031	5.001031
O	5.001031	3.334021	5.001031
O	3.334021	5.001031	5.001031
O	5.001031	5.001031	3.334021
