40

O	2.083666	2.083666	0.000000
O	2.083666	0.000000	2.083666
O	0.000000	2.083666	2.083666
Sb	2.083666	2.083666	2.083666
Te	0.000000	0.000000	0.000000
O	2.083666	2.083666	4.167333
O	2.083666	0.000000	6.250999
O	0.000000	2.083666	6.250999
Sb	2.083666	2.083666	6.250999
Te	0.000000	0.000000	4.167333
O	2.083666	6.250999	0.000000
O	2.083666	4.167333	2.083666
O	0.000000	6.250999	2.083666
Sb	2.083666	6.250999	2.083666
Te	0.000000	4.167333	0.000000
O	2.083666	6.250999	4.167333
O	2.083666	4.167333	6.250999
O	0.000000	6.250999	6.250999
Sb	2.083666	6.250999	6.250999
Te	0.000000	4.167333	4.167333
O	6.250999	2.083666	0.000000
O	6.250999	0.000000	2.083666
O	4.167333	2.083666	2.083666
Sb	6.250999	2.083666	2.083666
Te	4.167333	0.000000	0.000000
O	6.250999	2.083666	4.167333
O	6.250999	0.000000	6.250999
O	4.167333	2.083666	6.250999
Sb	6.250999	2.083666	6.250999
Te	4.167333	0.000000	4.167333
O	6.250999	6.250999	0.000000
O	6.250999	4.167333	2.083666
O	4.167333	6.250999	2.083666
Sb	6.250999	6.250999	2.083666
Te	4.167333	4.167333	0.000000
O	6.250999	6.250999	4.167333
O	6.250999	4.167333	6.250999
O	4.167333	6.250999	6.250999
Sb	6.250999	6.250999	6.250999
Te	4.167333	4.167333	4.167333
