40

Gd	0.000000	0.000000	0.000000
O	2.200729	2.200729	0.000000
O	2.200729	0.000000	2.200729
O	0.000000	2.200729	2.200729
Sr	2.200729	2.200729	2.200729
Gd	0.000000	0.000000	4.401458
O	2.200729	2.200729	4.401458
O	2.200729	0.000000	6.602187
O	0.000000	2.200729	6.602187
Sr	2.200729	2.200729	6.602187
Gd	0.000000	4.401458	0.000000
O	2.200729	6.602187	0.000000
O	2.200729	4.401458	2.200729
O	0.000000	6.602187	2.200729
Sr	2.200729	6.602187	2.200729
Gd	0.000000	4.401458	4.401458
O	2.200729	6.602187	4.401458
O	2.200729	4.401458	6.602187
O	0.000000	6.602187	6.602187
Sr	2.200729	6.602187	6.602187
Gd	4.401458	0.000000	0.000000
O	6.602187	2.200729	0.000000
O	6.602187	0.000000	2.200729
O	4.401458	2.200729	2.200729
Sr	6.602187	2.200729	2.200729
Gd	4.401458	0.000000	4.401458
O	6.602187	2.200729	4.401458
O	6.602187	0.000000	6.602187
O	4.401458	2.200729	6.602187
Sr	6.602187	2.200729	6.602187
Gd	4.401458	4.401458	0.000000
O	6.602187	6.602187	0.000000
O	6.602187	4.401458	2.200729
O	4.401458	6.602187	2.200729
Sr	6.602187	6.602187	2.200729
Gd	4.401458	4.401458	4.401458
O	6.602187	6.602187	4.401458
O	6.602187	4.401458	6.602187
O	4.401458	6.602187	6.602187
Sr	6.602187	6.602187	6.602187
