40

Be	0.000000	0.000000	0.000000
O	0.000000	2.057651	2.057651
O	2.057651	0.000000	2.057651
O	2.057651	2.057651	0.000000
Zr	2.057651	2.057651	2.057651
Be	0.000000	0.000000	4.115301
O	0.000000	2.057651	6.172952
O	2.057651	0.000000	6.172952
O	2.057651	2.057651	4.115301
Zr	2.057651	2.057651	6.172952
Be	0.000000	4.115301	0.000000
O	0.000000	6.172952	2.057651
O	2.057651	4.115301	2.057651
O	2.057651	6.172952	0.000000
Zr	2.057651	6.172952	2.057651
Be	0.000000	4.115301	4.115301
O	0.000000	6.172952	6.172952
O	2.057651	4.115301	6.172952
O	2.057651	6.172952	4.115301
Zr	2.057651	6.172952	6.172952
Be	4.115301	0.000000	0.000000
O	4.115301	2.057651	2.057651
O	6.172952	0.000000	2.057651
O	6.172952	2.057651	0.000000
Zr	6.172952	2.057651	2.057651
Be	4.115301	0.000000	4.115301
O	4.115301	2.057651	6.172952
O	6.172952	0.000000	6.172952
O	6.172952	2.057651	4.115301
Zr	6.172952	2.057651	6.172952
Be	4.115301	4.115301	0.000000
O	4.115301	6.172952	2.057651
O	6.172952	4.115301	2.057651
O	6.172952	6.172952	0.000000
Zr	6.172952	6.172952	2.057651
Be	4.115301	4.115301	4.115301
O	4.115301	6.172952	6.172952
O	6.172952	4.115301	6.172952
O	6.172952	6.172952	4.115301
Zr	6.172952	6.172952	6.172952
