40

Ba	0.000000	0.000000	0.000000
F	2.094609	2.094609	2.094609
O	0.000000	2.094609	2.094609
O	2.094609	0.000000	2.094609
O	2.094609	2.094609	0.000000
Ba	0.000000	0.000000	4.189218
F	2.094609	2.094609	6.283827
O	0.000000	2.094609	6.283827
O	2.094609	0.000000	6.283827
O	2.094609	2.094609	4.189218
Ba	0.000000	4.189218	0.000000
F	2.094609	6.283827	2.094609
O	0.000000	6.283827	2.094609
O	2.094609	4.189218	2.094609
O	2.094609	6.283827	0.000000
Ba	0.000000	4.189218	4.189218
F	2.094609	6.283827	6.283827
O	0.000000	6.283827	6.283827
O	2.094609	4.189218	6.283827
O	2.094609	6.283827	4.189218
Ba	4.189218	0.000000	0.000000
F	6.283827	2.094609	2.094609
O	4.189218	2.094609	2.094609
O	6.283827	0.000000	2.094609
O	6.283827	2.094609	0.000000
Ba	4.189218	0.000000	4.189218
F	6.283827	2.094609	6.283827
O	4.189218	2.094609	6.283827
O	6.283827	0.000000	6.283827
O	6.283827	2.094609	4.189218
Ba	4.189218	4.189218	0.000000
F	6.283827	6.283827	2.094609
O	4.189218	6.283827	2.094609
O	6.283827	4.189218	2.094609
O	6.283827	6.283827	0.000000
Ba	4.189218	4.189218	4.189218
F	6.283827	6.283827	6.283827
O	4.189218	6.283827	6.283827
O	6.283827	4.189218	6.283827
O	6.283827	6.283827	4.189218
