144

O	2.896404	2.048067	9.941591
O	0.600492	0.424612	5.964955
O	7.161468	2.048067	7.479155
O	4.318092	6.069208	7.479155
O	7.161468	2.048067	12.404027
O	4.318092	6.069208	12.404027
O	8.583156	6.069208	9.941591
O	2.022180	4.445753	8.427390
O	4.865556	0.424612	3.502519
O	2.022180	4.445753	3.502519
O	4.865556	0.424612	8.427390
O	6.287244	4.445753	5.964955
Cs	5.739780	4.058638	9.941591
Cs	3.443868	2.435183	5.964955
U	1.147956	3.246910	1.988318
U	3.443868	0.000000	1.988318
U	0.000000	0.000000	3.976636
U	0.000000	0.000000	0.000000
O	2.896404	2.048067	17.894864
O	0.600492	0.424612	13.918227
O	7.161468	2.048067	15.432428
O	4.318092	6.069208	15.432428
O	7.161468	2.048067	20.357300
O	4.318092	6.069208	20.357300
O	8.583156	6.069208	17.894864
O	2.022180	4.445753	16.380663
O	4.865556	0.424612	11.455792
O	2.022180	4.445753	11.455792
O	4.865556	0.424612	16.380663
O	6.287244	4.445753	13.918227
Cs	5.739780	4.058638	17.894864
Cs	3.443868	2.435183	13.918227
U	1.147956	3.246910	9.941591
U	3.443868	0.000000	9.941591
U	0.000000	0.000000	11.929909
U	0.000000	0.000000	7.953273
O	5.192317	8.541887	13.918227
O	2.896404	6.918432	9.941591
O	9.457380	8.541887	11.455792
O	6.614004	12.563028	11.455792
O	9.457380	8.541887	16.380663
O	6.614004	12.563028	16.380663
O	10.879068	12.563028	13.918227
O	4.318092	10.939573	12.404027
O	7.161468	6.918432	7.479155
O	4.318092	10.939573	7.479155
O	7.161468	6.918432	12.404027
O	8.583156	10.939573	9.941591
Cs	8.035692	10.552458	13.918227
Cs	5.739780	8.929003	9.941591
U	3.443868	9.740730	5.964955
U	5.739780	6.493820	5.964955
U	2.295912	6.493820	7.953273
U	2.295912	6.493820	3.976636
O	5.192317	8.541887	21.871500
O	2.896404	6.918432	17.894864
O	9.457380	8.541887	19.409065
O	6.614004	12.563028	19.409065
O	9.457380	8.541887	24.333936
O	6.614004	12.563028	24.333936
O	10.879068	12.563028	21.871500
O	4.318092	10.939573	20.357300
O	7.161468	6.918432	15.432428
O	4.318092	10.939573	15.432428
O	7.161468	6.918432	20.357300
O	8.583156	10.939573	17.894864
Cs	8.035692	10.552458	21.871500
Cs	5.739780	8.929003	17.894864
U	3.443868	9.740730	13.918227
U	5.739780	6.493820	13.918227
U	2.295912	6.493820	15.906546
U	2.295912	6.493820	11.929909
O	9.784141	2.048067	13.918227
O	7.488229	0.424612	9.941591
O	14.049204	2.048067	11.455792
O	11.205829	6.069208	11.455792
O	14.049204	2.048067	16.380663
O	11.205829	6.069208	16.380663
O	15.470892	6.069208	13.918227
O	8.909917	4.445753	12.404027
O	11.753292	0.424612	7.479155
O	8.909917	4.445753	7.479155
O	11.753292	0.424612	12.404027
O	13.174980	4.445753	9.941591
Cs	12.627517	4.058638	13.918227
Cs	10.331604	2.435183	9.941591
U	8.035692	3.246910	5.964955
U	10.331604	0.000000	5.964955
U	6.887736	0.000000	7.953273
U	6.887736	0.000000	3.976636
O	9.784141	2.048067	21.871500
O	7.488229	0.424612	17.894864
O	14.049204	2.048067	19.409065
O	11.205829	6.069208	19.409065
O	14.049204	2.048067	24.333936
O	11.205829	6.069208	24.333936
O	15.470892	6.069208	21.871500
O	8.909917	4.445753	20.357300
O	11.753292	0.424612	15.432428
O	8.909917	4.445753	15.432428
O	11.753292	0.424612	20.357300
O	13.174980	4.445753	17.894864
Cs	12.627517	4.058638	21.871500
Cs	10.331604	2.435183	17.894864
U	8.035692	3.246910	13.918227
U	10.331604	0.000000	13.918227
U	6.887736	0.000000	15.906546
U	6.887736	0.000000	11.929909
O	12.080053	8.541887	17.894864
O	9.784141	6.918432	13.918227
O	16.345117	8.541887	15.432428
O	13.501741	12.563028	15.432428
O	16.345117	8.541887	20.357300
O	13.501741	12.563028	20.357300
O	17.766804	12.563028	17.894864
O	11.205829	10.939573	16.380663
O	14.049204	6.918432	11.455792
O	11.205829	10.939573	11.455792
O	14.049204	6.918432	16.380663
O	15.470892	10.939573	13.918227
Cs	14.923429	10.552458	17.894864
Cs	12.627517	8.929003	13.918227
U	10.331604	9.740730	9.941591
U	12.627517	6.493820	9.941591
U	9.183648	6.493820	11.929909
U	9.183648	6.493820	7.953273
O	12.080053	8.541887	25.848137
O	9.784141	6.918432	21.871500
O	16.345117	8.541887	23.385701
O	13.501741	12.563028	23.385701
O	16.345117	8.541887	28.310572
O	13.501741	12.563028	28.310572
O	17.766804	12.563028	25.848137
O	11.205829	10.939573	24.333936
O	14.049204	6.918432	19.409065
O	11.205829	10.939573	19.409065
O	14.049204	6.918432	24.333936
O	15.470892	10.939573	21.871500
Cs	14.923429	10.552458	25.848137
Cs	12.627517	8.929003	21.871500
U	10.331604	9.740730	17.894864
U	12.627517	6.493820	17.894864
U	9.183648	6.493820	19.883182
U	9.183648	6.493820	15.906546
