40

Bi	2.181291	2.181291	2.181291
O	0.000000	2.181291	2.181291
O	2.181291	0.000000	2.181291
O	2.181291	2.181291	0.000000
Sb	0.000000	0.000000	0.000000
Bi	2.181291	2.181291	6.543874
O	0.000000	2.181291	6.543874
O	2.181291	0.000000	6.543874
O	2.181291	2.181291	4.362583
Sb	0.000000	0.000000	4.362583
Bi	2.181291	6.543874	2.181291
O	0.000000	6.543874	2.181291
O	2.181291	4.362583	2.181291
O	2.181291	6.543874	0.000000
Sb	0.000000	4.362583	0.000000
Bi	2.181291	6.543874	6.543874
O	0.000000	6.543874	6.543874
O	2.181291	4.362583	6.543874
O	2.181291	6.543874	4.362583
Sb	0.000000	4.362583	4.362583
Bi	6.543874	2.181291	2.181291
O	4.362583	2.181291	2.181291
O	6.543874	0.000000	2.181291
O	6.543874	2.181291	0.000000
Sb	4.362583	0.000000	0.000000
Bi	6.543874	2.181291	6.543874
O	4.362583	2.181291	6.543874
O	6.543874	0.000000	6.543874
O	6.543874	2.181291	4.362583
Sb	4.362583	0.000000	4.362583
Bi	6.543874	6.543874	2.181291
O	4.362583	6.543874	2.181291
O	6.543874	4.362583	2.181291
O	6.543874	6.543874	0.000000
Sb	4.362583	4.362583	0.000000
Bi	6.543874	6.543874	6.543874
O	4.362583	6.543874	6.543874
O	6.543874	4.362583	6.543874
O	6.543874	6.543874	4.362583
Sb	4.362583	4.362583	4.362583
