40

Bi	0.000000	0.000000	0.000000
O	0.000000	2.110546	2.110546
O	2.110546	0.000000	2.110546
O	2.110546	2.110546	0.000000
Sb	2.110546	2.110546	2.110546
Bi	0.000000	0.000000	4.221092
O	0.000000	2.110546	6.331638
O	2.110546	0.000000	6.331638
O	2.110546	2.110546	4.221092
Sb	2.110546	2.110546	6.331638
Bi	0.000000	4.221092	0.000000
O	0.000000	6.331638	2.110546
O	2.110546	4.221092	2.110546
O	2.110546	6.331638	0.000000
Sb	2.110546	6.331638	2.110546
Bi	0.000000	4.221092	4.221092
O	0.000000	6.331638	6.331638
O	2.110546	4.221092	6.331638
O	2.110546	6.331638	4.221092
Sb	2.110546	6.331638	6.331638
Bi	4.221092	0.000000	0.000000
O	4.221092	2.110546	2.110546
O	6.331638	0.000000	2.110546
O	6.331638	2.110546	0.000000
Sb	6.331638	2.110546	2.110546
Bi	4.221092	0.000000	4.221092
O	4.221092	2.110546	6.331638
O	6.331638	0.000000	6.331638
O	6.331638	2.110546	4.221092
Sb	6.331638	2.110546	6.331638
Bi	4.221092	4.221092	0.000000
O	4.221092	6.331638	2.110546
O	6.331638	4.221092	2.110546
O	6.331638	6.331638	0.000000
Sb	6.331638	6.331638	2.110546
Bi	4.221092	4.221092	4.221092
O	4.221092	6.331638	6.331638
O	6.331638	4.221092	6.331638
O	6.331638	6.331638	4.221092
Sb	6.331638	6.331638	6.331638
