40

B	1.686932	1.686932	1.686932
O	0.000000	1.686932	1.686932
O	1.686932	0.000000	1.686932
O	1.686932	1.686932	0.000000
S	0.000000	0.000000	0.000000
B	1.686932	1.686932	5.060795
O	0.000000	1.686932	5.060795
O	1.686932	0.000000	5.060795
O	1.686932	1.686932	3.373864
S	0.000000	0.000000	3.373864
B	1.686932	5.060795	1.686932
O	0.000000	5.060795	1.686932
O	1.686932	3.373864	1.686932
O	1.686932	5.060795	0.000000
S	0.000000	3.373864	0.000000
B	1.686932	5.060795	5.060795
O	0.000000	5.060795	5.060795
O	1.686932	3.373864	5.060795
O	1.686932	5.060795	3.373864
S	0.000000	3.373864	3.373864
B	5.060795	1.686932	1.686932
O	3.373864	1.686932	1.686932
O	5.060795	0.000000	1.686932
O	5.060795	1.686932	0.000000
S	3.373864	0.000000	0.000000
B	5.060795	1.686932	5.060795
O	3.373864	1.686932	5.060795
O	5.060795	0.000000	5.060795
O	5.060795	1.686932	3.373864
S	3.373864	0.000000	3.373864
B	5.060795	5.060795	1.686932
O	3.373864	5.060795	1.686932
O	5.060795	3.373864	1.686932
O	5.060795	5.060795	0.000000
S	3.373864	3.373864	0.000000
B	5.060795	5.060795	5.060795
O	3.373864	5.060795	5.060795
O	5.060795	3.373864	5.060795
O	5.060795	5.060795	3.373864
S	3.373864	3.373864	3.373864
