40

Nd	0.000000	0.000000	0.000000
O	2.013750	2.013750	0.000000
O	0.000000	2.013750	2.013750
O	2.013750	0.000000	2.013750
Ta	2.013750	2.013750	2.013750
Nd	0.000000	0.000000	4.027499
O	2.013750	2.013750	4.027499
O	0.000000	2.013750	6.041249
O	2.013750	0.000000	6.041249
Ta	2.013750	2.013750	6.041249
Nd	0.000000	4.027499	0.000000
O	2.013750	6.041249	0.000000
O	0.000000	6.041249	2.013750
O	2.013750	4.027499	2.013750
Ta	2.013750	6.041249	2.013750
Nd	0.000000	4.027499	4.027499
O	2.013750	6.041249	4.027499
O	0.000000	6.041249	6.041249
O	2.013750	4.027499	6.041249
Ta	2.013750	6.041249	6.041249
Nd	4.027499	0.000000	0.000000
O	6.041249	2.013750	0.000000
O	4.027499	2.013750	2.013750
O	6.041249	0.000000	2.013750
Ta	6.041249	2.013750	2.013750
Nd	4.027499	0.000000	4.027499
O	6.041249	2.013750	4.027499
O	4.027499	2.013750	6.041249
O	6.041249	0.000000	6.041249
Ta	6.041249	2.013750	6.041249
Nd	4.027499	4.027499	0.000000
O	6.041249	6.041249	0.000000
O	4.027499	6.041249	2.013750
O	6.041249	4.027499	2.013750
Ta	6.041249	6.041249	2.013750
Nd	4.027499	4.027499	4.027499
O	6.041249	6.041249	4.027499
O	4.027499	6.041249	6.041249
O	6.041249	4.027499	6.041249
Ta	6.041249	6.041249	6.041249
