40

Al	0.000000	0.000000	0.000000
Ga	1.881184	1.881184	1.881184
O	0.000000	1.881184	1.881184
O	1.881184	0.000000	1.881184
O	1.881184	1.881184	0.000000
Al	0.000000	0.000000	3.762368
Ga	1.881184	1.881184	5.643552
O	0.000000	1.881184	5.643552
O	1.881184	0.000000	5.643552
O	1.881184	1.881184	3.762368
Al	0.000000	3.762368	0.000000
Ga	1.881184	5.643552	1.881184
O	0.000000	5.643552	1.881184
O	1.881184	3.762368	1.881184
O	1.881184	5.643552	0.000000
Al	0.000000	3.762368	3.762368
Ga	1.881184	5.643552	5.643552
O	0.000000	5.643552	5.643552
O	1.881184	3.762368	5.643552
O	1.881184	5.643552	3.762368
Al	3.762368	0.000000	0.000000
Ga	5.643552	1.881184	1.881184
O	3.762368	1.881184	1.881184
O	5.643552	0.000000	1.881184
O	5.643552	1.881184	0.000000
Al	3.762368	0.000000	3.762368
Ga	5.643552	1.881184	5.643552
O	3.762368	1.881184	5.643552
O	5.643552	0.000000	5.643552
O	5.643552	1.881184	3.762368
Al	3.762368	3.762368	0.000000
Ga	5.643552	5.643552	1.881184
O	3.762368	5.643552	1.881184
O	5.643552	3.762368	1.881184
O	5.643552	5.643552	0.000000
Al	3.762368	3.762368	3.762368
Ga	5.643552	5.643552	5.643552
O	3.762368	5.643552	5.643552
O	5.643552	3.762368	5.643552
O	5.643552	5.643552	3.762368
