112

Nd	0.000000	0.000000	0.000000
Nd	2.407919	-2.408572	-2.408572
O	3.744952	-1.070589	-1.070589
O	-1.070887	1.070589	-3.746554
O	1.070887	-1.070589	-3.746554
O	1.337033	1.337982	-1.337982
O	5.886726	1.070589	-1.070589
O	1.337033	3.479161	-3.479161
O	3.478806	3.479161	-1.337982
O	3.478806	1.337982	-3.479161
Tm	-1.203960	-1.204286	-3.612858
Tm	3.611879	1.204286	-1.204286
Tm	6.019799	-1.204286	-1.204286
Tm	1.203960	1.204286	-3.612858
Nd	4.815839	4.817144	0.000000
Nd	7.223758	2.408572	-2.408572
O	8.560791	3.746554	-1.070589
O	3.744952	5.887733	-3.746554
O	5.886726	3.746554	-3.746554
O	6.152871	6.155126	-1.337982
O	10.702565	5.887733	-1.070589
O	6.152871	8.296305	-3.479161
O	8.294645	8.296305	-1.337982
O	8.294645	6.155126	-3.479161
Tm	3.611879	3.612858	-3.612858
Tm	8.427718	6.021430	-1.204286
Tm	10.835637	3.612858	-1.204286
Tm	6.019799	6.021430	-3.612858
Nd	-4.815839	0.000000	-4.817144
Nd	-2.407919	-2.408572	-7.225716
O	-1.070887	-1.070589	-5.887733
O	-5.886726	1.070589	-8.563698
O	-3.744952	-1.070589	-8.563698
O	-3.478806	1.337982	-6.155126
O	1.070887	1.070589	-5.887733
O	-3.478806	3.479161	-8.296305
O	-1.337033	3.479161	-6.155126
O	-1.337033	1.337982	-8.296305
Tm	-6.019799	-1.204286	-8.430002
Tm	-1.203960	1.204286	-6.021430
Tm	1.203960	-1.204286	-6.021430
Tm	-3.611879	1.204286	-8.430002
Nd	0.000000	4.817144	-4.817144
Nd	2.407919	2.408572	-7.225716
O	3.744952	3.746554	-5.887733
O	-1.070887	5.887733	-8.563698
O	1.070887	3.746554	-8.563698
O	1.337033	6.155126	-6.155126
O	5.886726	5.887733	-5.887733
O	1.337033	8.296305	-8.296305
O	3.478806	8.296305	-6.155126
O	3.478806	6.155126	-8.296305
Tm	-1.203960	3.612858	-8.430002
Tm	3.611879	6.021430	-6.021430
Tm	6.019799	3.612858	-6.021430
Tm	1.203960	6.021430	-8.430002
Nd	4.815839	-4.817144	0.000000
Nd	7.223758	-7.225716	-2.408572
O	8.560791	-5.887733	-1.070589
O	3.744952	-3.746554	-3.746554
O	5.886726	-5.887733	-3.746554
O	6.152871	-3.479161	-1.337982
O	10.702565	-3.746554	-1.070589
O	6.152871	-1.337982	-3.479161
O	8.294645	-1.337982	-1.337982
O	8.294645	-3.479161	-3.479161
Tm	3.611879	-6.021430	-3.612858
Tm	8.427718	-3.612858	-1.204286
Tm	10.835637	-6.021430	-1.204286
Tm	6.019799	-3.612858	-3.612858
Nd	9.631678	0.000000	0.000000
Nd	12.039597	-2.408572	-2.408572
O	13.376630	-1.070589	-1.070589
O	8.560791	1.070589	-3.746554
O	10.702565	-1.070589	-3.746554
O	10.968710	1.337982	-1.337982
O	15.518403	1.070589	-1.070589
O	10.968710	3.479161	-3.479161
O	13.110484	3.479161	-1.337982
O	13.110484	1.337982	-3.479161
Tm	8.427718	-1.204286	-3.612858
Tm	13.243557	1.204286	-1.204286
Tm	15.651476	-1.204286	-1.204286
Tm	10.835637	1.204286	-3.612858
Nd	0.000000	-4.817144	-4.817144
Nd	2.407919	-7.225716	-7.225716
O	3.744952	-5.887733	-5.887733
O	-1.070887	-3.746554	-8.563698
O	1.070887	-5.887733	-8.563698
O	1.337033	-3.479161	-6.155126
O	5.886726	-3.746554	-5.887733
O	1.337033	-1.337982	-8.296305
O	3.478806	-1.337982	-6.155126
O	3.478806	-3.479161	-8.296305
Tm	-1.203960	-6.021430	-8.430002
Tm	3.611879	-3.612858	-6.021430
Tm	6.019799	-6.021430	-6.021430
Tm	1.203960	-3.612858	-8.430002
Nd	4.815839	0.000000	-4.817144
Nd	7.223758	-2.408572	-7.225716
O	8.560791	-1.070589	-5.887733
O	3.744952	1.070589	-8.563698
O	5.886726	-1.070589	-8.563698
O	6.152871	1.337982	-6.155126
O	10.702565	1.070589	-5.887733
O	6.152871	3.479161	-8.296305
O	8.294645	3.479161	-6.155126
O	8.294645	1.337982	-8.296305
Tm	3.611879	-1.204286	-8.430002
Tm	8.427718	1.204286	-6.021430
Tm	10.835637	-1.204286	-6.021430
Tm	6.019799	1.204286	-8.430002
