112

Be	0.000000	0.000000	0.000000
Be	2.014809	-2.014399	-2.014399
O	0.916374	0.916630	-0.916630
O	-1.098435	1.097768	-2.931019
O	2.931183	-1.097768	-1.097768
O	1.098435	-1.097768	-2.931019
O	0.916374	3.112167	-3.112167
O	3.113233	3.112167	-0.916630
O	3.113233	0.916630	-3.112167
O	5.128042	1.097768	-1.097768
Re	-1.007399	-1.007199	-3.021598
Re	5.037017	-1.007199	-1.007199
Re	3.022208	1.007199	-1.007199
Re	1.007399	1.007199	-3.021598
Be	4.029613	4.028791	0.000000
Be	6.044422	2.014393	-2.014399
O	4.945987	4.945422	-0.916630
O	2.931179	5.126559	-2.931019
O	6.960796	2.931023	-1.097768
O	5.128048	2.931023	-2.931019
O	4.945987	7.140958	-3.112167
O	7.142847	7.140958	-0.916630
O	7.142847	4.945422	-3.112167
O	9.157656	5.126559	-1.097768
Re	3.022214	3.021592	-3.021598
Re	9.066630	3.021592	-1.007199
Re	7.051822	5.035991	-1.007199
Re	5.037013	5.035991	-3.021598
Be	-4.029613	0.000000	-4.028791
Be	-2.014805	-2.014399	-6.043190
O	-3.113240	0.916630	-4.945422
O	-5.128048	1.097768	-6.959810
O	-1.098431	-1.097768	-5.126559
O	-2.931179	-1.097768	-6.959810
O	-3.113239	3.112167	-7.140958
O	-0.916380	3.112167	-4.945422
O	-0.916380	0.916630	-7.140958
O	1.098429	1.097768	-5.126559
Re	-5.037013	-1.007199	-7.050389
Re	1.007403	-1.007199	-5.035991
Re	-1.007405	1.007199	-5.035991
Re	-3.022214	1.007199	-7.050389
Be	0.000000	4.028791	-4.028791
Be	2.014809	2.014393	-6.043190
O	0.916374	4.945422	-4.945422
O	-1.098435	5.126559	-6.959810
O	2.931183	2.931023	-5.126559
O	1.098435	2.931023	-6.959810
O	0.916374	7.140958	-7.140958
O	3.113233	7.140958	-4.945422
O	3.113233	4.945422	-7.140958
O	5.128042	5.126559	-5.126559
Re	-1.007399	3.021592	-7.050389
Re	5.037017	3.021592	-5.035991
Re	3.022208	5.035991	-5.035991
Re	1.007399	5.035991	-7.050389
Be	4.029613	-4.028791	0.000000
Be	6.044422	-6.043190	-2.014399
O	4.945987	-3.112161	-0.916630
O	2.931179	-2.931023	-2.931019
O	6.960796	-5.126559	-1.097768
O	5.128048	-5.126559	-2.931019
O	4.945987	-0.916625	-3.112167
O	7.142847	-0.916625	-0.916630
O	7.142847	-3.112161	-3.112167
O	9.157656	-2.931023	-1.097768
Re	3.022214	-5.035991	-3.021598
Re	9.066630	-5.035991	-1.007199
Re	7.051822	-3.021592	-1.007199
Re	5.037013	-3.021592	-3.021598
Be	8.059227	0.000000	0.000000
Be	10.074036	-2.014399	-2.014399
O	8.975601	0.916630	-0.916630
O	6.960792	1.097768	-2.931019
O	10.990410	-1.097768	-1.097768
O	9.157662	-1.097768	-2.931019
O	8.975601	3.112167	-3.112167
O	11.172460	3.112167	-0.916630
O	11.172460	0.916630	-3.112167
O	13.187269	1.097768	-1.097768
Re	7.051828	-1.007199	-3.021598
Re	13.096244	-1.007199	-1.007199
Re	11.081435	1.007199	-1.007199
Re	9.066626	1.007199	-3.021598
Be	0.000000	-4.028791	-4.028791
Be	2.014809	-6.043190	-6.043190
O	0.916374	-3.112161	-4.945422
O	-1.098435	-2.931023	-6.959810
O	2.931183	-5.126559	-5.126559
O	1.098435	-5.126559	-6.959810
O	0.916374	-0.916625	-7.140958
O	3.113233	-0.916625	-4.945422
O	3.113233	-3.112161	-7.140958
O	5.128042	-2.931023	-5.126559
Re	-1.007399	-5.035991	-7.050389
Re	5.037017	-5.035991	-5.035991
Re	3.022208	-3.021592	-5.035991
Re	1.007399	-3.021592	-7.050389
Be	4.029613	0.000000	-4.028791
Be	6.044422	-2.014399	-6.043190
O	4.945987	0.916630	-4.945422
O	2.931179	1.097768	-6.959810
O	6.960796	-1.097768	-5.126559
O	5.128048	-1.097768	-6.959810
O	4.945987	3.112167	-7.140958
O	7.142847	3.112167	-4.945422
O	7.142847	0.916630	-7.140958
O	9.157656	1.097768	-5.126559
Re	3.022214	-1.007199	-7.050389
Re	9.066630	-1.007199	-5.035991
Re	7.051822	1.007199	-5.035991
Re	5.037013	1.007199	-7.050389
