112

Cu	0.000000	0.000000	0.000000
Cu	2.533934	-2.534583	-2.534583
O	-1.026341	1.023359	-4.045807
O	4.041548	-1.023359	-1.023359
O	1.026341	-1.023359	-4.045807
O	1.507614	1.511224	-1.511224
O	6.094209	1.023359	-1.023359
O	1.507614	3.557942	-3.557942
O	3.560275	1.511224	-3.557942
O	3.560275	3.557942	-1.511224
Pa	-1.266977	-1.267292	-3.801875
Pa	6.334846	-1.267292	-1.267292
Pa	3.800912	1.267292	-1.267292
Pa	1.266977	1.267292	-3.801875
Cu	5.067885	5.069167	0.000000
Cu	7.601819	2.534584	-2.534583
O	4.041544	6.092526	-4.045807
O	9.109433	4.045808	-1.023359
O	6.094226	4.045808	-4.045807
O	6.575499	6.580391	-1.511224
O	11.162094	6.092526	-1.023359
O	6.575498	8.627109	-3.557942
O	8.628160	6.580391	-3.557942
O	8.628160	8.627109	-1.511224
Pa	3.800907	3.801876	-3.801875
Pa	11.402731	3.801876	-1.267292
Pa	8.868796	6.336459	-1.267292
Pa	6.334862	6.336459	-3.801875
Cu	-5.067885	0.000000	-5.069167
Cu	-2.533950	-2.534583	-7.603750
O	-6.094226	1.023359	-9.114974
O	-1.026337	-1.023359	-6.092526
O	-4.041544	-1.023359	-9.114974
O	-3.560271	1.511224	-6.580391
O	1.026325	1.023359	-6.092526
O	-3.560271	3.557942	-8.627109
O	-1.507609	1.511224	-8.627109
O	-1.507609	3.557942	-6.580391
Pa	-6.334862	-1.267292	-8.871042
Pa	1.266961	-1.267292	-6.336459
Pa	-1.266973	1.267292	-6.336459
Pa	-3.800907	1.267292	-8.871042
Cu	0.000000	5.069167	-5.069167
Cu	2.533934	2.534584	-7.603750
O	-1.026341	6.092526	-9.114974
O	4.041548	4.045808	-6.092526
O	1.026341	4.045808	-9.114974
O	1.507614	6.580391	-6.580391
O	6.094209	6.092526	-6.092526
O	1.507614	8.627109	-8.627109
O	3.560275	6.580391	-8.627109
O	3.560275	8.627109	-6.580391
Pa	-1.266977	3.801876	-8.871042
Pa	6.334846	3.801876	-6.336459
Pa	3.800912	6.336459	-6.336459
Pa	1.266977	6.336459	-8.871042
Cu	5.067885	-5.069167	0.000000
Cu	7.601819	-7.603750	-2.534583
O	4.041544	-4.045808	-4.045807
O	9.109433	-6.092526	-1.023359
O	6.094226	-6.092526	-4.045807
O	6.575499	-3.557943	-1.511224
O	11.162094	-4.045808	-1.023359
O	6.575498	-1.511225	-3.557942
O	8.628160	-3.557943	-3.557942
O	8.628160	-1.511225	-1.511224
Pa	3.800907	-6.336459	-3.801875
Pa	11.402731	-6.336459	-1.267292
Pa	8.868796	-3.801876	-1.267292
Pa	6.334862	-3.801876	-3.801875
Cu	10.135769	0.000000	0.000000
Cu	12.669704	-2.534583	-2.534583
O	9.109428	1.023359	-4.045807
O	14.177317	-1.023359	-1.023359
O	11.162110	-1.023359	-4.045807
O	11.643383	1.511224	-1.511224
O	16.229979	1.023359	-1.023359
O	11.643383	3.557942	-3.557942
O	13.696045	1.511224	-3.557942
O	13.696045	3.557942	-1.511224
Pa	8.868792	-1.267292	-3.801875
Pa	16.470615	-1.267292	-1.267292
Pa	13.936681	1.267292	-1.267292
Pa	11.402747	1.267292	-3.801875
Cu	0.000000	-5.069167	-5.069167
Cu	2.533934	-7.603750	-7.603750
O	-1.026341	-4.045808	-9.114974
O	4.041548	-6.092526	-6.092526
O	1.026341	-6.092526	-9.114974
O	1.507614	-3.557943	-6.580391
O	6.094209	-4.045808	-6.092526
O	1.507614	-1.511225	-8.627109
O	3.560275	-3.557943	-8.627109
O	3.560275	-1.511225	-6.580391
Pa	-1.266977	-6.336459	-8.871042
Pa	6.334846	-6.336459	-6.336459
Pa	3.800912	-3.801876	-6.336459
Pa	1.266977	-3.801876	-8.871042
Cu	5.067885	0.000000	-5.069167
Cu	7.601819	-2.534583	-7.603750
O	4.041544	1.023359	-9.114974
O	9.109433	-1.023359	-6.092526
O	6.094226	-1.023359	-9.114974
O	6.575499	1.511224	-6.580391
O	11.162094	1.023359	-6.092526
O	6.575498	3.557942	-8.627109
O	8.628160	1.511224	-8.627109
O	8.628160	3.557942	-6.580391
Pa	3.800907	-1.267292	-8.871042
Pa	11.402731	-1.267292	-6.336459
Pa	8.868796	1.267292	-6.336459
Pa	6.334862	1.267292	-8.871042
