40

Ca	0.000000	0.000000	0.000000
O	0.000000	1.983621	1.983621
O	1.983621	0.000000	1.983621
O	1.983621	1.983621	0.000000
Os	1.983621	1.983621	1.983621
Ca	0.000000	0.000000	3.967243
O	0.000000	1.983621	5.950864
O	1.983621	0.000000	5.950864
O	1.983621	1.983621	3.967243
Os	1.983621	1.983621	5.950864
Ca	0.000000	3.967243	0.000000
O	0.000000	5.950864	1.983621
O	1.983621	3.967243	1.983621
O	1.983621	5.950864	0.000000
Os	1.983621	5.950864	1.983621
Ca	0.000000	3.967243	3.967243
O	0.000000	5.950864	5.950864
O	1.983621	3.967243	5.950864
O	1.983621	5.950864	3.967243
Os	1.983621	5.950864	5.950864
Ca	3.967243	0.000000	0.000000
O	3.967243	1.983621	1.983621
O	5.950864	0.000000	1.983621
O	5.950864	1.983621	0.000000
Os	5.950864	1.983621	1.983621
Ca	3.967243	0.000000	3.967243
O	3.967243	1.983621	5.950864
O	5.950864	0.000000	5.950864
O	5.950864	1.983621	3.967243
Os	5.950864	1.983621	5.950864
Ca	3.967243	3.967243	0.000000
O	3.967243	5.950864	1.983621
O	5.950864	3.967243	1.983621
O	5.950864	5.950864	0.000000
Os	5.950864	5.950864	1.983621
Ca	3.967243	3.967243	3.967243
O	3.967243	5.950864	5.950864
O	5.950864	3.967243	5.950864
O	5.950864	5.950864	3.967243
Os	5.950864	5.950864	5.950864
