112

Be	0.000000	0.000000	0.000000
Be	1.993542	-1.993688	-1.993688
Ga	-0.996771	-0.996844	-2.990532
Ga	0.996771	0.996844	-2.990532
Ga	4.983844	-0.996844	-0.996844
Ga	2.990313	0.996844	-0.996844
O	-0.993620	0.993521	-2.993855
O	2.993453	-0.993521	-0.993521
O	0.993620	-0.993521	-2.993855
O	0.999922	1.000167	-1.000167
O	4.980703	0.993521	-0.993521
O	0.999922	2.987209	-2.987209
O	2.987162	2.987209	-1.000167
O	2.987162	1.000167	-2.987209
Be	3.987077	3.987382	0.000000
Be	5.980619	1.993694	-1.993688
Ga	2.990306	2.990538	-2.990532
Ga	4.983848	4.984226	-2.990532
Ga	8.970922	2.990538	-0.996844
Ga	6.977390	4.984226	-0.996844
O	2.993457	4.980903	-2.993855
O	6.980531	2.993861	-0.993521
O	4.980697	2.993861	-2.993855
O	4.986999	4.987550	-1.000167
O	8.967781	4.980903	-0.993521
O	4.986999	6.974592	-2.987209
O	6.974239	6.974592	-1.000167
O	6.974239	4.987550	-2.987209
Be	-3.987077	0.000000	-3.987382
Be	-1.993536	-1.993688	-5.981071
Ga	-4.983848	-0.996844	-6.977915
Ga	-2.990306	0.996844	-6.977915
Ga	0.996767	-0.996844	-4.984226
Ga	-0.996765	0.996844	-4.984226
O	-4.980697	0.993521	-6.981238
O	-0.993624	-0.993521	-4.980903
O	-2.993457	-0.993521	-6.981238
O	-2.987156	1.000167	-4.987550
O	0.993626	0.993521	-4.980903
O	-2.987156	2.987209	-6.974592
O	-0.999915	2.987209	-4.987550
O	-0.999915	1.000167	-6.974592
Be	0.000000	3.987382	-3.987382
Be	1.993542	1.993694	-5.981071
Ga	-0.996771	2.990538	-6.977915
Ga	0.996771	4.984226	-6.977915
Ga	4.983844	2.990538	-4.984226
Ga	2.990313	4.984226	-4.984226
O	-0.993620	4.980903	-6.981238
O	2.993453	2.993861	-4.980903
O	0.993620	2.993861	-6.981238
O	0.999922	4.987550	-4.987550
O	4.980703	4.980903	-4.980903
O	0.999922	6.974592	-6.974592
O	2.987162	6.974592	-4.987550
O	2.987162	4.987550	-6.974592
Be	3.987077	-3.987382	0.000000
Be	5.980619	-5.981071	-1.993688
Ga	2.990306	-4.984226	-2.990532
Ga	4.983848	-2.990538	-2.990532
Ga	8.970922	-4.984226	-0.996844
Ga	6.977390	-2.990538	-0.996844
O	2.993457	-2.993861	-2.993855
O	6.980531	-4.980903	-0.993521
O	4.980697	-4.980903	-2.993855
O	4.986999	-2.987215	-1.000167
O	8.967781	-2.993861	-0.993521
O	4.986999	-1.000173	-2.987209
O	6.974239	-1.000173	-1.000167
O	6.974239	-2.987215	-2.987209
Be	7.974155	0.000000	0.000000
Be	9.967696	-1.993688	-1.993688
Ga	6.977384	-0.996844	-2.990532
Ga	8.970925	0.996844	-2.990532
Ga	12.957999	-0.996844	-0.996844
Ga	10.964467	0.996844	-0.996844
O	6.980534	0.993521	-2.993855
O	10.967608	-0.993521	-0.993521
O	8.967775	-0.993521	-2.993855
O	8.974076	1.000167	-1.000167
O	12.954858	0.993521	-0.993521
O	8.974076	2.987209	-2.987209
O	10.961316	2.987209	-1.000167
O	10.961316	1.000167	-2.987209
Be	0.000000	-3.987382	-3.987382
Be	1.993542	-5.981071	-5.981071
Ga	-0.996771	-4.984226	-6.977915
Ga	0.996771	-2.990538	-6.977915
Ga	4.983844	-4.984226	-4.984226
Ga	2.990313	-2.990538	-4.984226
O	-0.993620	-2.993861	-6.981238
O	2.993453	-4.980903	-4.980903
O	0.993620	-4.980903	-6.981238
O	0.999922	-2.987215	-4.987550
O	4.980703	-2.993861	-4.980903
O	0.999922	-1.000173	-6.974592
O	2.987162	-1.000173	-4.987550
O	2.987162	-2.987215	-6.974592
Be	3.987077	0.000000	-3.987382
Be	5.980619	-1.993688	-5.981071
Ga	2.990306	-0.996844	-6.977915
Ga	4.983848	0.996844	-6.977915
Ga	8.970922	-0.996844	-4.984226
Ga	6.977390	0.996844	-4.984226
O	2.993457	0.993521	-6.981238
O	6.980531	-0.993521	-4.980903
O	4.980697	-0.993521	-6.981238
O	4.986999	1.000167	-4.987550
O	8.967781	0.993521	-4.980903
O	4.986999	2.987209	-6.974592
O	6.974239	2.987209	-4.987550
O	6.974239	1.000167	-6.974592
