72

Tc	0.000000	0.000000	0.000000
Br	-4.975347	-4.975347	-2.460672
Br	-4.975347	-7.490022	-4.975347
Br	-7.490022	-4.975347	-4.975347
Br	-4.975347	-4.975347	-7.490022
Br	-4.975347	-2.460672	-4.975347
Br	-2.460672	-4.975347	-4.975347
O	-2.487673	-2.487673	-2.487673
O	-7.463020	-7.463020	-7.463020
Tc	0.000000	-4.975347	-4.975347
Br	-4.975347	-9.950694	-7.436018
Br	-4.975347	-12.465369	-9.950694
Br	-7.490022	-9.950694	-9.950694
Br	-4.975347	-9.950694	-12.465369
Br	-4.975347	-7.436018	-9.950694
Br	-2.460672	-9.950694	-9.950694
O	-2.487673	-7.463020	-7.463020
O	-7.463020	-12.438367	-12.438367
Tc	-4.975347	0.000000	-4.975347
Br	-9.950694	-4.975347	-7.436018
Br	-9.950694	-7.490022	-9.950694
Br	-12.465369	-4.975347	-9.950694
Br	-9.950694	-4.975347	-12.465369
Br	-9.950694	-2.460672	-9.950694
Br	-7.436018	-4.975347	-9.950694
O	-7.463020	-2.487673	-7.463020
O	-12.438367	-7.463020	-12.438367
Tc	-4.975347	-4.975347	-9.950694
Br	-9.950694	-9.950694	-12.411365
Br	-9.950694	-12.465369	-14.926040
Br	-12.465369	-9.950694	-14.926040
Br	-9.950694	-9.950694	-17.440715
Br	-9.950694	-7.436018	-14.926040
Br	-7.436018	-9.950694	-14.926040
O	-7.463020	-7.463020	-12.438367
O	-12.438367	-12.438367	-17.413714
Tc	-4.975347	-4.975347	0.000000
Br	-9.950694	-9.950694	-2.460672
Br	-9.950694	-12.465369	-4.975347
Br	-12.465369	-9.950694	-4.975347
Br	-9.950694	-9.950694	-7.490022
Br	-9.950694	-7.436018	-4.975347
Br	-7.436018	-9.950694	-4.975347
O	-7.463020	-7.463020	-2.487673
O	-12.438367	-12.438367	-7.463020
Tc	-4.975347	-9.950694	-4.975347
Br	-9.950694	-14.926040	-7.436018
Br	-9.950694	-17.440715	-9.950694
Br	-12.465369	-14.926040	-9.950694
Br	-9.950694	-14.926040	-12.465369
Br	-9.950694	-12.411365	-9.950694
Br	-7.436018	-14.926040	-9.950694
O	-7.463020	-12.438367	-7.463020
O	-12.438367	-17.413714	-12.438367
Tc	-9.950694	-4.975347	-4.975347
Br	-14.926040	-9.950694	-7.436018
Br	-14.926040	-12.465369	-9.950694
Br	-17.440715	-9.950694	-9.950694
Br	-14.926040	-9.950694	-12.465369
Br	-14.926040	-7.436018	-9.950694
Br	-12.411365	-9.950694	-9.950694
O	-12.438367	-7.463020	-7.463020
O	-17.413714	-12.438367	-12.438367
Tc	-9.950694	-9.950694	-9.950694
Br	-14.926040	-14.926040	-12.411365
Br	-14.926040	-17.440715	-14.926040
Br	-17.440715	-14.926040	-14.926040
Br	-14.926040	-14.926040	-17.440715
Br	-14.926040	-12.411365	-14.926040
Br	-12.411365	-14.926040	-14.926040
O	-12.438367	-12.438367	-12.438367
O	-17.413714	-17.413714	-17.413714
