40

Cs	0.000000	0.000000	0.000000
O	2.249404	2.249404	0.000000
O	2.249404	0.000000	2.249404
O	0.000000	2.249404	2.249404
Yb	2.249404	2.249404	2.249404
Cs	0.000000	0.000000	4.498814
O	2.249404	2.249404	4.498814
O	2.249404	0.000000	6.748219
O	0.000000	2.249404	6.748219
Yb	2.249404	2.249404	6.748219
Cs	0.000000	4.498814	0.000000
O	2.249404	6.748219	0.000000
O	2.249404	4.498814	2.249404
O	0.000000	6.748219	2.249404
Yb	2.249404	6.748219	2.249404
Cs	0.000000	4.498814	4.498814
O	2.249404	6.748219	4.498814
O	2.249404	4.498814	6.748219
O	0.000000	6.748219	6.748219
Yb	2.249404	6.748219	6.748219
Cs	4.498814	0.000000	0.000000
O	6.748219	2.249404	0.000000
O	6.748219	0.000000	2.249404
O	4.498814	2.249404	2.249404
Yb	6.748219	2.249404	2.249404
Cs	4.498814	0.000000	4.498814
O	6.748219	2.249404	4.498814
O	6.748219	0.000000	6.748219
O	4.498814	2.249404	6.748219
Yb	6.748219	2.249404	6.748219
Cs	4.498814	4.498814	0.000000
O	6.748219	6.748219	0.000000
O	6.748219	4.498814	2.249404
O	4.498814	6.748219	2.249404
Yb	6.748219	6.748219	2.249404
Cs	4.498814	4.498814	4.498814
O	6.748219	6.748219	4.498814
O	6.748219	4.498814	6.748219
O	4.498814	6.748219	6.748219
Yb	6.748219	6.748219	6.748219
