112

Eu	0.000000	0.000000	0.000000
Eu	2.258015	-2.259148	-2.259148
O	3.555191	-0.959735	-0.959735
O	-0.960829	0.959735	-3.558560
O	0.960829	-0.959735	-3.558560
O	1.297176	1.299413	-1.299413
O	5.476850	0.959735	-0.959735
O	1.297176	3.218873	-3.218873
O	3.218845	1.299413	-3.218873
O	3.218845	3.218873	-1.299413
Tc	-1.129008	-1.129574	-3.388711
Tc	1.129008	1.129574	-3.388711
Tc	3.387013	1.129574	-1.129574
Tc	5.645028	-1.129574	-1.129574
Eu	4.516021	4.518288	0.000000
Eu	6.774037	2.259141	-2.259148
O	8.071213	3.558553	-0.959735
O	3.555192	5.478023	-3.558560
O	5.476851	3.558553	-3.558560
O	5.813197	5.817701	-1.299413
O	9.992871	5.478023	-0.959735
O	5.813197	7.737161	-3.218873
O	7.734866	5.817701	-3.218873
O	7.734866	7.737161	-1.299413
Tc	3.387014	3.388715	-3.388711
Tc	5.645029	5.647862	-3.388711
Tc	7.903034	5.647862	-1.129574
Tc	10.161050	3.388715	-1.129574
Eu	-4.516021	0.000000	-4.518288
Eu	-2.258006	-2.259148	-6.777436
O	-0.960830	-0.959735	-5.478023
O	-5.476851	0.959735	-8.076849
O	-3.555192	-0.959735	-8.076849
O	-3.218845	1.299413	-5.817701
O	0.960829	0.959735	-5.478023
O	-3.218845	3.218873	-7.737161
O	-1.297176	1.299413	-7.737161
O	-1.297177	3.218873	-5.817701
Tc	-5.645029	-1.129574	-7.907000
Tc	-3.387014	1.129574	-7.907000
Tc	-1.129008	1.129574	-5.647862
Tc	1.129007	-1.129574	-5.647862
Eu	0.000000	4.518288	-4.518288
Eu	2.258015	2.259141	-6.777436
O	3.555191	3.558553	-5.478023
O	-0.960829	5.478023	-8.076849
O	0.960829	3.558553	-8.076849
O	1.297176	5.817701	-5.817701
O	5.476850	5.478023	-5.478023
O	1.297176	7.737161	-7.737161
O	3.218845	5.817701	-7.737161
O	3.218845	7.737161	-5.817701
Tc	-1.129008	3.388715	-7.907000
Tc	1.129008	5.647862	-7.907000
Tc	3.387013	5.647862	-5.647862
Tc	5.645028	3.388715	-5.647862
Eu	4.516021	-4.518288	0.000000
Eu	6.774037	-6.777436	-2.259148
O	8.071213	-5.478023	-0.959735
O	3.555192	-3.558553	-3.558560
O	5.476851	-5.478023	-3.558560
O	5.813197	-3.218876	-1.299413
O	9.992871	-3.558553	-0.959735
O	5.813197	-1.299416	-3.218873
O	7.734866	-3.218876	-3.218873
O	7.734866	-1.299416	-1.299413
Tc	3.387014	-5.647862	-3.388711
Tc	5.645029	-3.388715	-3.388711
Tc	7.903034	-3.388715	-1.129574
Tc	10.161050	-5.647862	-1.129574
Eu	9.032042	0.000000	0.000000
Eu	11.290058	-2.259148	-2.259148
O	12.587234	-0.959735	-0.959735
O	8.071213	0.959735	-3.558560
O	9.992872	-0.959735	-3.558560
O	10.329218	1.299413	-1.299413
O	14.508893	0.959735	-0.959735
O	10.329219	3.218873	-3.218873
O	12.250887	1.299413	-3.218873
O	12.250887	3.218873	-1.299413
Tc	7.903035	-1.129574	-3.388711
Tc	10.161050	1.129574	-3.388711
Tc	12.419056	1.129574	-1.129574
Tc	14.677071	-1.129574	-1.129574
Eu	0.000000	-4.518288	-4.518288
Eu	2.258015	-6.777436	-6.777436
O	3.555191	-5.478023	-5.478023
O	-0.960829	-3.558553	-8.076849
O	0.960829	-5.478023	-8.076849
O	1.297176	-3.218876	-5.817701
O	5.476850	-3.558553	-5.478023
O	1.297176	-1.299416	-7.737161
O	3.218845	-3.218876	-7.737161
O	3.218845	-1.299416	-5.817701
Tc	-1.129008	-5.647862	-7.907000
Tc	1.129008	-3.388715	-7.907000
Tc	3.387013	-3.388715	-5.647862
Tc	5.645028	-5.647862	-5.647862
Eu	4.516021	0.000000	-4.518288
Eu	6.774037	-2.259148	-6.777436
O	8.071213	-0.959735	-5.478023
O	3.555192	0.959735	-8.076849
O	5.476851	-0.959735	-8.076849
O	5.813197	1.299413	-5.817701
O	9.992871	0.959735	-5.478023
O	5.813197	3.218873	-7.737161
O	7.734866	1.299413	-7.737161
O	7.734866	3.218873	-5.817701
Tc	3.387014	-1.129574	-7.907000
Tc	5.645029	1.129574	-7.907000
Tc	7.903034	1.129574	-5.647862
Tc	10.161050	-1.129574	-5.647862
