40

Mg	0.000000	0.000000	0.000000
O	2.027667	2.027667	0.000000
O	2.027667	0.000000	2.027667
O	0.000000	2.027667	2.027667
Sb	2.027667	2.027667	2.027667
Mg	0.000000	0.000000	4.055336
O	2.027667	2.027667	4.055336
O	2.027667	0.000000	6.083003
O	0.000000	2.027667	6.083003
Sb	2.027667	2.027667	6.083003
Mg	0.000000	4.055336	0.000000
O	2.027667	6.083003	0.000000
O	2.027667	4.055336	2.027667
O	0.000000	6.083003	2.027667
Sb	2.027667	6.083003	2.027667
Mg	0.000000	4.055336	4.055336
O	2.027667	6.083003	4.055336
O	2.027667	4.055336	6.083003
O	0.000000	6.083003	6.083003
Sb	2.027667	6.083003	6.083003
Mg	4.055336	0.000000	0.000000
O	6.083003	2.027667	0.000000
O	6.083003	0.000000	2.027667
O	4.055336	2.027667	2.027667
Sb	6.083003	2.027667	2.027667
Mg	4.055336	0.000000	4.055336
O	6.083003	2.027667	4.055336
O	6.083003	0.000000	6.083003
O	4.055336	2.027667	6.083003
Sb	6.083003	2.027667	6.083003
Mg	4.055336	4.055336	0.000000
O	6.083003	6.083003	0.000000
O	6.083003	4.055336	2.027667
O	4.055336	6.083003	2.027667
Sb	6.083003	6.083003	2.027667
Mg	4.055336	4.055336	4.055336
O	6.083003	6.083003	4.055336
O	6.083003	4.055336	6.083003
O	4.055336	6.083003	6.083003
Sb	6.083003	6.083003	6.083003
