40

O	1.962597	1.962597	0.000000
O	0.000000	1.962597	1.962597
O	1.962597	0.000000	1.962597
Ti	1.962597	1.962597	1.962597
Tl	0.000000	0.000000	0.000000
O	1.962597	1.962597	3.925187
O	0.000000	1.962597	5.887784
O	1.962597	0.000000	5.887784
Ti	1.962597	1.962597	5.887784
Tl	0.000000	0.000000	3.925187
O	1.962597	5.887784	0.000000
O	0.000000	5.887784	1.962597
O	1.962597	3.925187	1.962597
Ti	1.962597	5.887784	1.962597
Tl	0.000000	3.925187	0.000000
O	1.962597	5.887784	3.925187
O	0.000000	5.887784	5.887784
O	1.962597	3.925187	5.887784
Ti	1.962597	5.887784	5.887784
Tl	0.000000	3.925187	3.925187
O	5.887784	1.962597	0.000000
O	3.925187	1.962597	1.962597
O	5.887784	0.000000	1.962597
Ti	5.887784	1.962597	1.962597
Tl	3.925187	0.000000	0.000000
O	5.887784	1.962597	3.925187
O	3.925187	1.962597	5.887784
O	5.887784	0.000000	5.887784
Ti	5.887784	1.962597	5.887784
Tl	3.925187	0.000000	3.925187
O	5.887784	5.887784	0.000000
O	3.925187	5.887784	1.962597
O	5.887784	3.925187	1.962597
Ti	5.887784	5.887784	1.962597
Tl	3.925187	3.925187	0.000000
O	5.887784	5.887784	3.925187
O	3.925187	5.887784	5.887784
O	5.887784	3.925187	5.887784
Ti	5.887784	5.887784	5.887784
Tl	3.925187	3.925187	3.925187
