40

Ce	0.000000	0.000000	0.000000
Cu	1.935016	1.935016	1.935016
O	1.935016	1.935016	0.000000
O	1.935016	0.000000	1.935016
O	0.000000	1.935016	1.935016
Ce	0.000000	0.000000	3.870031
Cu	1.935016	1.935016	5.805047
O	1.935016	1.935016	3.870031
O	1.935016	0.000000	5.805047
O	0.000000	1.935016	5.805047
Ce	0.000000	3.870031	0.000000
Cu	1.935016	5.805047	1.935016
O	1.935016	5.805047	0.000000
O	1.935016	3.870031	1.935016
O	0.000000	5.805047	1.935016
Ce	0.000000	3.870031	3.870031
Cu	1.935016	5.805047	5.805047
O	1.935016	5.805047	3.870031
O	1.935016	3.870031	5.805047
O	0.000000	5.805047	5.805047
Ce	3.870031	0.000000	0.000000
Cu	5.805047	1.935016	1.935016
O	5.805047	1.935016	0.000000
O	5.805047	0.000000	1.935016
O	3.870031	1.935016	1.935016
Ce	3.870031	0.000000	3.870031
Cu	5.805047	1.935016	5.805047
O	5.805047	1.935016	3.870031
O	5.805047	0.000000	5.805047
O	3.870031	1.935016	5.805047
Ce	3.870031	3.870031	0.000000
Cu	5.805047	5.805047	1.935016
O	5.805047	5.805047	0.000000
O	5.805047	3.870031	1.935016
O	3.870031	5.805047	1.935016
Ce	3.870031	3.870031	3.870031
Cu	5.805047	5.805047	5.805047
O	5.805047	5.805047	3.870031
O	5.805047	3.870031	5.805047
O	3.870031	5.805047	5.805047
