40

O	2.077186	0.000000	2.077186
O	2.077186	2.077186	0.000000
O	0.000000	2.077186	2.077186
Nb	2.077186	2.077186	2.077186
Ba	0.000000	0.000000	0.000000
O	2.077186	0.000000	6.231559
O	2.077186	2.077186	4.154373
O	0.000000	2.077186	6.231559
Nb	2.077186	2.077186	6.231559
Ba	0.000000	0.000000	4.154373
O	2.077186	4.154373	2.077186
O	2.077186	6.231559	0.000000
O	0.000000	6.231559	2.077186
Nb	2.077186	6.231559	2.077186
Ba	0.000000	4.154373	0.000000
O	2.077186	4.154373	6.231559
O	2.077186	6.231559	4.154373
O	0.000000	6.231559	6.231559
Nb	2.077186	6.231559	6.231559
Ba	0.000000	4.154373	4.154373
O	6.231559	0.000000	2.077186
O	6.231559	2.077186	0.000000
O	4.154373	2.077186	2.077186
Nb	6.231559	2.077186	2.077186
Ba	4.154373	0.000000	0.000000
O	6.231559	0.000000	6.231559
O	6.231559	2.077186	4.154373
O	4.154373	2.077186	6.231559
Nb	6.231559	2.077186	6.231559
Ba	4.154373	0.000000	4.154373
O	6.231559	4.154373	2.077186
O	6.231559	6.231559	0.000000
O	4.154373	6.231559	2.077186
Nb	6.231559	6.231559	2.077186
Ba	4.154373	4.154373	0.000000
O	6.231559	4.154373	6.231559
O	6.231559	6.231559	4.154373
O	4.154373	6.231559	6.231559
Nb	6.231559	6.231559	6.231559
Ba	4.154373	4.154373	4.154373
