40

O	2.135650	2.135650	0.000000
O	0.000000	2.135650	2.135650
O	2.135650	0.000000	2.135650
Pb_d	2.135650	2.135650	2.135650
Y_sv	0.000000	0.000000	0.000000
O	2.135650	2.135650	4.271293
O	0.000000	2.135650	6.406943
O	2.135650	0.000000	6.406943
Pb_d	2.135650	2.135650	6.406943
Y_sv	0.000000	0.000000	4.271293
O	2.135650	6.406943	0.000000
O	0.000000	6.406943	2.135650
O	2.135650	4.271293	2.135650
Pb_d	2.135650	6.406943	2.135650
Y_sv	0.000000	4.271293	0.000000
O	2.135650	6.406943	4.271293
O	0.000000	6.406943	6.406943
O	2.135650	4.271293	6.406943
Pb_d	2.135650	6.406943	6.406943
Y_sv	0.000000	4.271293	4.271293
O	6.406943	2.135650	0.000000
O	4.271293	2.135650	2.135650
O	6.406943	0.000000	2.135650
Pb_d	6.406943	2.135650	2.135650
Y_sv	4.271293	0.000000	0.000000
O	6.406943	2.135650	4.271293
O	4.271293	2.135650	6.406943
O	6.406943	0.000000	6.406943
Pb_d	6.406943	2.135650	6.406943
Y_sv	4.271293	0.000000	4.271293
O	6.406943	6.406943	0.000000
O	4.271293	6.406943	2.135650
O	6.406943	4.271293	2.135650
Pb_d	6.406943	6.406943	2.135650
Y_sv	4.271293	4.271293	0.000000
O	6.406943	6.406943	4.271293
O	4.271293	6.406943	6.406943
O	6.406943	4.271293	6.406943
Pb_d	6.406943	6.406943	6.406943
Y_sv	4.271293	4.271293	4.271293
