40

O	2.114966	2.114966	0.000000
O	0.000000	2.114966	2.114966
O	2.114966	0.000000	2.114966
Tl	2.114966	2.114966	2.114966
Y	0.000000	0.000000	0.000000
O	2.114966	2.114966	4.229940
O	0.000000	2.114966	6.344905
O	2.114966	0.000000	6.344905
Tl	2.114966	2.114966	6.344905
Y	0.000000	0.000000	4.229940
O	2.114966	6.344905	0.000000
O	0.000000	6.344905	2.114966
O	2.114966	4.229940	2.114966
Tl	2.114966	6.344905	2.114966
Y	0.000000	4.229940	0.000000
O	2.114966	6.344905	4.229940
O	0.000000	6.344905	6.344905
O	2.114966	4.229940	6.344905
Tl	2.114966	6.344905	6.344905
Y	0.000000	4.229940	4.229940
O	6.344905	2.114966	0.000000
O	4.229940	2.114966	2.114966
O	6.344905	0.000000	2.114966
Tl	6.344905	2.114966	2.114966
Y	4.229940	0.000000	0.000000
O	6.344905	2.114966	4.229940
O	4.229940	2.114966	6.344905
O	6.344905	0.000000	6.344905
Tl	6.344905	2.114966	6.344905
Y	4.229940	0.000000	4.229940
O	6.344905	6.344905	0.000000
O	4.229940	6.344905	2.114966
O	6.344905	4.229940	2.114966
Tl	6.344905	6.344905	2.114966
Y	4.229940	4.229940	0.000000
O	6.344905	6.344905	4.229940
O	4.229940	6.344905	6.344905
O	6.344905	4.229940	6.344905
Tl	6.344905	6.344905	6.344905
Y	4.229940	4.229940	4.229940
