24

Li	2.473308	2.473308	-2.473308
Cu	0.000000	0.000000	0.000000
O	3.709961	3.709961	-3.709961
Li	2.473308	4.946615	-4.946615
Cu	0.000000	2.473308	-2.473308
O	3.709961	6.183269	-6.183269
Li	4.946615	2.473308	-4.946615
Cu	2.473308	0.000000	-2.473308
O	6.183269	3.709961	-6.183269
Li	4.946615	4.946615	-7.419923
Cu	2.473308	2.473308	-4.946615
O	6.183269	6.183269	-8.656577
Li	4.946615	4.946615	-2.473308
Cu	2.473308	2.473308	0.000000
O	6.183269	6.183269	-3.709961
Li	4.946615	7.419923	-4.946615
Cu	2.473308	4.946615	-2.473308
O	6.183269	8.656577	-6.183269
Li	7.419923	4.946615	-4.946615
Cu	4.946615	2.473308	-2.473308
O	8.656577	6.183269	-6.183269
Li	7.419923	7.419923	-7.419923
Cu	4.946615	4.946615	-4.946615
O	8.656577	8.656577	-8.656577
