40

Hf	2.049980	2.049980	2.049980
O	2.049980	2.049980	0.000000
O	0.000000	2.049980	2.049980
O	2.049980	0.000000	2.049980
Pr	0.000000	0.000000	0.000000
Hf	2.049980	2.049980	6.149947
O	2.049980	2.049980	4.099967
O	0.000000	2.049980	6.149947
O	2.049980	0.000000	6.149947
Pr	0.000000	0.000000	4.099967
Hf	2.049980	6.149947	2.049980
O	2.049980	6.149947	0.000000
O	0.000000	6.149947	2.049980
O	2.049980	4.099967	2.049980
Pr	0.000000	4.099967	0.000000
Hf	2.049980	6.149947	6.149947
O	2.049980	6.149947	4.099967
O	0.000000	6.149947	6.149947
O	2.049980	4.099967	6.149947
Pr	0.000000	4.099967	4.099967
Hf	6.149947	2.049980	2.049980
O	6.149947	2.049980	0.000000
O	4.099967	2.049980	2.049980
O	6.149947	0.000000	2.049980
Pr	4.099967	0.000000	0.000000
Hf	6.149947	2.049980	6.149947
O	6.149947	2.049980	4.099967
O	4.099967	2.049980	6.149947
O	6.149947	0.000000	6.149947
Pr	4.099967	0.000000	4.099967
Hf	6.149947	6.149947	2.049980
O	6.149947	6.149947	0.000000
O	4.099967	6.149947	2.049980
O	6.149947	4.099967	2.049980
Pr	4.099967	4.099967	0.000000
Hf	6.149947	6.149947	6.149947
O	6.149947	6.149947	4.099967
O	4.099967	6.149947	6.149947
O	6.149947	4.099967	6.149947
Pr	4.099967	4.099967	4.099967
