40

O	0.000000	1.948116	1.948116
O	1.948116	0.000000	1.948116
O	1.948116	1.948116	0.000000
Ti	1.948116	1.948116	1.948116
Zr	0.000000	0.000000	0.000000
O	0.000000	1.948116	5.844347
O	1.948116	0.000000	5.844347
O	1.948116	1.948116	3.896231
Ti	1.948116	1.948116	5.844347
Zr	0.000000	0.000000	3.896231
O	0.000000	5.844347	1.948116
O	1.948116	3.896231	1.948116
O	1.948116	5.844347	0.000000
Ti	1.948116	5.844347	1.948116
Zr	0.000000	3.896231	0.000000
O	0.000000	5.844347	5.844347
O	1.948116	3.896231	5.844347
O	1.948116	5.844347	3.896231
Ti	1.948116	5.844347	5.844347
Zr	0.000000	3.896231	3.896231
O	3.896231	1.948116	1.948116
O	5.844347	0.000000	1.948116
O	5.844347	1.948116	0.000000
Ti	5.844347	1.948116	1.948116
Zr	3.896231	0.000000	0.000000
O	3.896231	1.948116	5.844347
O	5.844347	0.000000	5.844347
O	5.844347	1.948116	3.896231
Ti	5.844347	1.948116	5.844347
Zr	3.896231	0.000000	3.896231
O	3.896231	5.844347	1.948116
O	5.844347	3.896231	1.948116
O	5.844347	5.844347	0.000000
Ti	5.844347	5.844347	1.948116
Zr	3.896231	3.896231	0.000000
O	3.896231	5.844347	5.844347
O	5.844347	3.896231	5.844347
O	5.844347	5.844347	3.896231
Ti	5.844347	5.844347	5.844347
Zr	3.896231	3.896231	3.896231
