40

Ca	0.000000	0.000000	0.000000
Fe	1.913316	1.913316	1.913316
O	0.000000	1.913316	1.913316
O	1.913316	0.000000	1.913316
O	1.913316	1.913316	0.000000
Ca	0.000000	0.000000	3.826633
Fe	1.913316	1.913316	5.739949
O	0.000000	1.913316	5.739949
O	1.913316	0.000000	5.739949
O	1.913316	1.913316	3.826633
Ca	0.000000	3.826633	0.000000
Fe	1.913316	5.739949	1.913316
O	0.000000	5.739949	1.913316
O	1.913316	3.826633	1.913316
O	1.913316	5.739949	0.000000
Ca	0.000000	3.826633	3.826633
Fe	1.913316	5.739949	5.739949
O	0.000000	5.739949	5.739949
O	1.913316	3.826633	5.739949
O	1.913316	5.739949	3.826633
Ca	3.826633	0.000000	0.000000
Fe	5.739949	1.913316	1.913316
O	3.826633	1.913316	1.913316
O	5.739949	0.000000	1.913316
O	5.739949	1.913316	0.000000
Ca	3.826633	0.000000	3.826633
Fe	5.739949	1.913316	5.739949
O	3.826633	1.913316	5.739949
O	5.739949	0.000000	5.739949
O	5.739949	1.913316	3.826633
Ca	3.826633	3.826633	0.000000
Fe	5.739949	5.739949	1.913316
O	3.826633	5.739949	1.913316
O	5.739949	3.826633	1.913316
O	5.739949	5.739949	0.000000
Ca	3.826633	3.826633	3.826633
Fe	5.739949	5.739949	5.739949
O	3.826633	5.739949	5.739949
O	5.739949	3.826633	5.739949
O	5.739949	5.739949	3.826633
