112

Cs	0.000000	0.000000	0.000000
Cs	2.373221	-2.373147	-2.373147
Ge	-1.186611	-1.186573	-3.559720
Ge	3.559832	1.186573	-1.186573
Ge	5.933053	-1.186573	-1.186573
Ge	1.186611	1.186573	-3.559720
O	3.855346	-0.890487	-0.890487
O	-0.891096	0.890487	-3.855806
O	0.891096	-0.890487	-3.855806
O	1.482125	1.482659	-1.482660
O	5.637539	0.890487	-0.890487
O	1.482125	3.263634	-3.263634
O	3.264318	3.263634	-1.482660
O	3.264318	1.482659	-3.263634
Cs	4.746442	4.746294	0.000000
Cs	7.119664	2.373147	-2.373147
Ge	3.559832	3.559720	-3.559720
Ge	8.306274	5.932867	-1.186573
Ge	10.679495	3.559720	-1.186573
Ge	5.933053	5.932867	-3.559720
O	8.601788	3.855806	-0.890487
O	3.855346	5.636781	-3.855806
O	5.637539	3.855806	-3.855806
O	6.228567	6.228953	-1.482660
O	10.383981	5.636781	-0.890487
O	6.228567	8.009928	-3.263634
O	8.010760	8.009928	-1.482660
O	8.010760	6.228953	-3.263634
Cs	-4.746442	0.000000	-4.746294
Cs	-2.373221	-2.373147	-7.119440
Ge	-5.933053	-1.186573	-8.306014
Ge	-1.186611	1.186573	-5.932867
Ge	1.186611	-1.186573	-5.932867
Ge	-3.559832	1.186573	-8.306014
O	-0.891096	-0.890487	-5.636781
O	-5.637539	0.890487	-8.602100
O	-3.855346	-0.890487	-8.602100
O	-3.264318	1.482659	-6.228953
O	0.891096	0.890487	-5.636781
O	-3.264318	3.263634	-8.009928
O	-1.482125	3.263634	-6.228953
O	-1.482125	1.482659	-8.009928
Cs	0.000000	4.746294	-4.746294
Cs	2.373221	2.373147	-7.119440
Ge	-1.186611	3.559720	-8.306014
Ge	3.559832	5.932867	-5.932867
Ge	5.933053	3.559720	-5.932867
Ge	1.186611	5.932867	-8.306014
O	3.855346	3.855806	-5.636781
O	-0.891096	5.636781	-8.602100
O	0.891096	3.855806	-8.602100
O	1.482125	6.228953	-6.228953
O	5.637539	5.636781	-5.636781
O	1.482125	8.009928	-8.009928
O	3.264318	8.009928	-6.228953
O	3.264318	6.228953	-8.009928
Cs	4.746442	-4.746294	0.000000
Cs	7.119664	-7.119440	-2.373147
Ge	3.559832	-5.932867	-3.559720
Ge	8.306274	-3.559720	-1.186573
Ge	10.679495	-5.932867	-1.186573
Ge	5.933053	-3.559720	-3.559720
O	8.601788	-5.636781	-0.890487
O	3.855346	-3.855806	-3.855806
O	5.637539	-5.636781	-3.855806
O	6.228567	-3.263634	-1.482660
O	10.383981	-3.855806	-0.890487
O	6.228567	-1.482660	-3.263634
O	8.010760	-1.482660	-1.482660
O	8.010760	-3.263634	-3.263634
Cs	9.492885	0.000000	0.000000
Cs	11.866106	-2.373147	-2.373147
Ge	8.306274	-1.186573	-3.559720
Ge	13.052717	1.186573	-1.186573
Ge	15.425938	-1.186573	-1.186573
Ge	10.679495	1.186573	-3.559720
O	13.348231	-0.890487	-0.890487
O	8.601788	0.890487	-3.855806
O	10.383981	-0.890487	-3.855806
O	10.975010	1.482659	-1.482660
O	15.130424	0.890487	-0.890487
O	10.975010	3.263634	-3.263634
O	12.757202	3.263634	-1.482660
O	12.757202	1.482659	-3.263634
Cs	0.000000	-4.746294	-4.746294
Cs	2.373221	-7.119440	-7.119440
Ge	-1.186611	-5.932867	-8.306014
Ge	3.559832	-3.559720	-5.932867
Ge	5.933053	-5.932867	-5.932867
Ge	1.186611	-3.559720	-8.306014
O	3.855346	-5.636781	-5.636781
O	-0.891096	-3.855806	-8.602100
O	0.891096	-5.636781	-8.602100
O	1.482125	-3.263634	-6.228953
O	5.637539	-3.855806	-5.636781
O	1.482125	-1.482660	-8.009928
O	3.264318	-1.482660	-6.228953
O	3.264318	-3.263634	-8.009928
Cs	4.746442	0.000000	-4.746294
Cs	7.119664	-2.373147	-7.119440
Ge	3.559832	-1.186573	-8.306014
Ge	8.306274	1.186573	-5.932867
Ge	10.679495	-1.186573	-5.932867
Ge	5.933053	1.186573	-8.306014
O	8.601788	-0.890487	-5.636781
O	3.855346	0.890487	-8.602100
O	5.637539	-0.890487	-8.602100
O	6.228567	1.482659	-6.228953
O	10.383981	0.890487	-5.636781
O	6.228567	3.263634	-8.009928
O	8.010760	3.263634	-6.228953
O	8.010760	1.482659	-8.009928
