112

O	1.050354	1.047117	-1.047117
O	1.528406	-1.530701	-3.624936
O	3.629124	-1.530701	-1.530701
O	-1.528406	1.530701	-3.624936
O	4.107176	4.108530	-1.047117
O	4.107176	1.047117	-4.108530
O	1.050354	4.108530	-4.108530
O	6.685935	1.530701	-1.530701
Os	0.000000	0.000000	0.000000
Os	2.578770	-2.577819	-2.577819
Rb	-1.289380	-1.288914	-3.866733
Rb	6.446910	-1.288914	-1.288914
Rb	1.289380	1.288914	-3.866733
Rb	3.868150	1.288914	-1.288914
O	6.207885	6.202756	-1.047117
O	6.685937	3.624937	-3.624936
O	8.786655	3.624937	-1.530701
O	3.629125	6.686340	-3.624936
O	9.264707	9.264168	-1.047117
O	9.264707	6.202756	-4.108530
O	6.207885	9.264168	-4.108530
O	11.843467	6.686340	-1.530701
Os	5.157531	5.155639	0.000000
Os	7.736301	2.577820	-2.577819
Rb	3.868151	3.866724	-3.866733
Rb	11.604441	3.866724	-1.288914
Rb	6.446911	6.444553	-3.866733
Rb	9.025681	6.444553	-1.288914
O	-4.107177	1.047117	-6.202756
O	-3.629125	-1.530701	-8.780575
O	-1.528407	-1.530701	-6.686340
O	-6.685937	1.530701	-8.780575
O	-1.050356	4.108530	-6.202756
O	-1.050356	1.047117	-9.264168
O	-4.107177	4.108530	-9.264168
O	1.528404	1.530701	-6.686340
Os	-5.157531	0.000000	-5.155639
Os	-2.578761	-2.577819	-7.733457
Rb	-6.446911	-1.288914	-9.022371
Rb	1.289378	-1.288914	-6.444553
Rb	-3.868151	1.288914	-9.022371
Rb	-1.289381	1.288914	-6.444553
O	1.050354	6.202756	-6.202756
O	1.528406	3.624937	-8.780575
O	3.629124	3.624937	-6.686340
O	-1.528406	6.686340	-8.780575
O	4.107176	9.264168	-6.202756
O	4.107176	6.202756	-9.264168
O	1.050354	9.264168	-9.264168
O	6.685935	6.686340	-6.686340
Os	0.000000	5.155639	-5.155639
Os	2.578770	2.577820	-7.733457
Rb	-1.289380	3.866724	-9.022371
Rb	6.446910	3.866724	-6.444553
Rb	1.289380	6.444553	-9.022371
Rb	3.868150	6.444553	-6.444553
O	6.207885	-4.108521	-1.047117
O	6.685937	-6.686340	-3.624936
O	8.786655	-6.686340	-1.530701
O	3.629125	-3.624937	-3.624936
O	9.264707	-1.047109	-1.047117
O	9.264707	-4.108521	-4.108530
O	6.207885	-1.047109	-4.108530
O	11.843467	-3.624937	-1.530701
Os	5.157531	-5.155639	0.000000
Os	7.736301	-7.733457	-2.577819
Rb	3.868151	-6.444553	-3.866733
Rb	11.604441	-6.444553	-1.288914
Rb	6.446911	-3.866724	-3.866733
Rb	9.025681	-3.866724	-1.288914
O	11.365416	1.047117	-1.047117
O	11.843468	-1.530701	-3.624936
O	13.944186	-1.530701	-1.530701
O	8.786656	1.530701	-3.624936
O	14.422238	4.108530	-1.047117
O	14.422238	1.047117	-4.108530
O	11.365416	4.108530	-4.108530
O	17.000998	1.530701	-1.530701
Os	10.315062	0.000000	0.000000
Os	12.893832	-2.577819	-2.577819
Rb	9.025682	-1.288914	-3.866733
Rb	16.761972	-1.288914	-1.288914
Rb	11.604442	1.288914	-3.866733
Rb	14.183212	1.288914	-1.288914
O	1.050354	-4.108521	-6.202756
O	1.528406	-6.686340	-8.780575
O	3.629124	-6.686340	-6.686340
O	-1.528406	-3.624937	-8.780575
O	4.107176	-1.047109	-6.202756
O	4.107176	-4.108521	-9.264168
O	1.050354	-1.047109	-9.264168
O	6.685935	-3.624937	-6.686340
Os	0.000000	-5.155639	-5.155639
Os	2.578770	-7.733457	-7.733457
Rb	-1.289380	-6.444553	-9.022371
Rb	6.446910	-6.444553	-6.444553
Rb	1.289380	-3.866724	-9.022371
Rb	3.868150	-3.866724	-6.444553
O	6.207885	1.047117	-6.202756
O	6.685937	-1.530701	-8.780575
O	8.786655	-1.530701	-6.686340
O	3.629125	1.530701	-8.780575
O	9.264707	4.108530	-6.202756
O	9.264707	1.047117	-9.264168
O	6.207885	4.108530	-9.264168
O	11.843467	1.530701	-6.686340
Os	5.157531	0.000000	-5.155639
Os	7.736301	-2.577819	-7.733457
Rb	3.868151	-1.288914	-9.022371
Rb	11.604441	-1.288914	-6.444553
Rb	6.446911	1.288914	-9.022371
Rb	9.025681	1.288914	-6.444553
