112

Mg	0.000000	0.000000	0.000000
Mg	2.162473	-2.162838	-2.162838
O	3.292018	-1.032726	-1.032726
O	-1.032927	1.032726	-3.292949
O	1.032927	-1.032726	-3.292949
O	1.129545	1.130112	-1.130112
O	5.357873	1.032726	-1.032726
O	1.129545	3.195564	-3.195564
O	3.195400	3.195564	-1.130112
O	3.195400	1.130112	-3.195564
Tc	-1.081236	-1.081419	-3.244257
Tc	3.243709	1.081419	-1.081419
Tc	5.406182	-1.081419	-1.081419
Tc	1.081236	1.081419	-3.244257
Mg	4.324946	4.325676	0.000000
Mg	6.487418	2.162838	-2.162838
O	7.616964	3.292949	-1.032726
O	3.292018	5.358402	-3.292949
O	5.357873	3.292949	-3.292949
O	5.454491	5.455787	-1.130112
O	9.682818	5.358402	-1.032726
O	5.454491	7.521240	-3.195564
O	7.520346	7.521240	-1.130112
O	7.520346	5.455787	-3.195564
Tc	3.243709	3.244257	-3.244257
Tc	7.568655	5.407095	-1.081419
Tc	9.731127	3.244257	-1.081419
Tc	5.406182	5.407095	-3.244257
Mg	-4.324946	0.000000	-4.325676
Mg	-2.162473	-2.162838	-6.488514
O	-1.032927	-1.032726	-5.358402
O	-5.357873	1.032726	-7.618625
O	-3.292018	-1.032726	-7.618625
O	-3.195400	1.130112	-5.455787
O	1.032927	1.032726	-5.358402
O	-3.195400	3.195564	-7.521240
O	-1.129545	3.195564	-5.455787
O	-1.129545	1.130112	-7.521240
Tc	-5.406182	-1.081419	-7.569933
Tc	-1.081236	1.081419	-5.407095
Tc	1.081236	-1.081419	-5.407095
Tc	-3.243709	1.081419	-7.569933
Mg	0.000000	4.325676	-4.325676
Mg	2.162473	2.162838	-6.488514
O	3.292018	3.292949	-5.358402
O	-1.032927	5.358402	-7.618625
O	1.032927	3.292949	-7.618625
O	1.129545	5.455787	-5.455787
O	5.357873	5.358402	-5.358402
O	1.129545	7.521240	-7.521240
O	3.195400	7.521240	-5.455787
O	3.195400	5.455787	-7.521240
Tc	-1.081236	3.244257	-7.569933
Tc	3.243709	5.407095	-5.407095
Tc	5.406182	3.244257	-5.407095
Tc	1.081236	5.407095	-7.569933
Mg	4.324946	-4.325676	0.000000
Mg	6.487418	-6.488514	-2.162838
O	7.616964	-5.358402	-1.032726
O	3.292018	-3.292949	-3.292949
O	5.357873	-5.358402	-3.292949
O	5.454491	-3.195564	-1.130112
O	9.682818	-3.292949	-1.032726
O	5.454491	-1.130112	-3.195564
O	7.520346	-1.130112	-1.130112
O	7.520346	-3.195564	-3.195564
Tc	3.243709	-5.407095	-3.244257
Tc	7.568655	-3.244257	-1.081419
Tc	9.731127	-5.407095	-1.081419
Tc	5.406182	-3.244257	-3.244257
Mg	8.649891	0.000000	0.000000
Mg	10.812364	-2.162838	-2.162838
O	11.941909	-1.032726	-1.032726
O	7.616964	1.032726	-3.292949
O	9.682818	-1.032726	-3.292949
O	9.779436	1.130112	-1.130112
O	14.007764	1.032726	-1.032726
O	9.779436	3.195564	-3.195564
O	11.845291	3.195564	-1.130112
O	11.845291	1.130112	-3.195564
Tc	7.568655	-1.081419	-3.244257
Tc	11.893600	1.081419	-1.081419
Tc	14.056073	-1.081419	-1.081419
Tc	9.731127	1.081419	-3.244257
Mg	0.000000	-4.325676	-4.325676
Mg	2.162473	-6.488514	-6.488514
O	3.292018	-5.358402	-5.358402
O	-1.032927	-3.292949	-7.618625
O	1.032927	-5.358402	-7.618625
O	1.129545	-3.195564	-5.455787
O	5.357873	-3.292949	-5.358402
O	1.129545	-1.130112	-7.521240
O	3.195400	-1.130112	-5.455787
O	3.195400	-3.195564	-7.521240
Tc	-1.081236	-5.407095	-7.569933
Tc	3.243709	-3.244257	-5.407095
Tc	5.406182	-5.407095	-5.407095
Tc	1.081236	-3.244257	-7.569933
Mg	4.324946	0.000000	-4.325676
Mg	6.487418	-2.162838	-6.488514
O	7.616964	-1.032726	-5.358402
O	3.292018	1.032726	-7.618625
O	5.357873	-1.032726	-7.618625
O	5.454491	1.130112	-5.455787
O	9.682818	1.032726	-5.358402
O	5.454491	3.195564	-7.521240
O	7.520346	3.195564	-5.455787
O	7.520346	1.130112	-7.521240
Tc	3.243709	-1.081419	-7.569933
Tc	7.568655	1.081419	-5.407095
Tc	9.731127	-1.081419	-5.407095
Tc	5.406182	1.081419	-7.569933
