112

K	0.000000	0.000000	0.000000
K	2.276474	-2.277363	-2.277363
O	-0.887541	0.887236	-3.667490
O	3.665398	-0.887236	-0.887236
O	0.887541	-0.887236	-3.667490
O	1.388924	1.390127	-1.390127
O	5.440479	0.887236	-0.887236
O	1.388924	3.164610	-3.164610
O	3.164015	3.164610	-1.390127
O	3.164015	1.390127	-3.164610
Ru	-1.138232	-1.138682	-3.416045
Ru	1.138232	1.138682	-3.416045
Ru	5.691171	-1.138682	-1.138682
Ru	3.414706	1.138682	-1.138682
K	4.552940	4.554730	0.000000
K	6.829414	2.277367	-2.277363
O	3.665399	5.441966	-3.667490
O	8.218338	3.667494	-0.887236
O	5.440481	3.667494	-3.667490
O	5.941864	5.944857	-1.390127
O	9.993420	5.441966	-0.887236
O	5.941864	7.719340	-3.164610
O	7.716955	7.719340	-1.390127
O	7.716955	5.944857	-3.164610
Ru	3.414708	3.416048	-3.416045
Ru	5.691172	5.693412	-3.416045
Ru	10.244111	3.416048	-1.138682
Ru	7.967647	5.693412	-1.138682
K	-4.552940	0.000000	-4.554730
K	-2.276466	-2.277363	-6.832093
O	-5.440481	0.887236	-8.222221
O	-0.887542	-0.887236	-5.441966
O	-3.665399	-0.887236	-8.222221
O	-3.164016	1.390127	-5.944857
O	0.887539	0.887236	-5.441966
O	-3.164016	3.164610	-7.719340
O	-1.388925	3.164610	-5.944857
O	-1.388925	1.390127	-7.719340
Ru	-5.691172	-1.138682	-7.970775
Ru	-3.414708	1.138682	-7.970775
Ru	1.138231	-1.138682	-5.693412
Ru	-1.138234	1.138682	-5.693412
K	0.000000	4.554730	-4.554730
K	2.276474	2.277367	-6.832093
O	-0.887541	5.441966	-8.222221
O	3.665398	3.667494	-5.441966
O	0.887541	3.667494	-8.222221
O	1.388924	5.944857	-5.944857
O	5.440479	5.441966	-5.441966
O	1.388924	7.719340	-7.719340
O	3.164015	7.719340	-5.944857
O	3.164015	5.944857	-7.719340
Ru	-1.138232	3.416048	-7.970775
Ru	1.138232	5.693412	-7.970775
Ru	5.691171	3.416048	-5.693412
Ru	3.414706	5.693412	-5.693412
K	4.552940	-4.554730	0.000000
K	6.829414	-6.832094	-2.277363
O	3.665399	-3.667494	-3.667490
O	8.218338	-5.441966	-0.887236
O	5.440481	-5.441966	-3.667490
O	5.941864	-3.164603	-1.390127
O	9.993420	-3.667494	-0.887236
O	5.941864	-1.390121	-3.164610
O	7.716955	-1.390121	-1.390127
O	7.716955	-3.164603	-3.164610
Ru	3.414708	-5.693412	-3.416045
Ru	5.691172	-3.416048	-3.416045
Ru	10.244111	-5.693412	-1.138682
Ru	7.967647	-3.416048	-1.138682
K	9.105880	0.000000	0.000000
K	11.382355	-2.277363	-2.277363
O	8.218340	0.887236	-3.667490
O	12.771278	-0.887236	-0.887236
O	9.993421	-0.887236	-3.667490
O	10.494804	1.390127	-1.390127
O	14.546360	0.887236	-0.887236
O	10.494804	3.164610	-3.164610
O	12.269895	3.164610	-1.390127
O	12.269895	1.390127	-3.164610
Ru	7.967648	-1.138682	-3.416045
Ru	10.244112	1.138682	-3.416045
Ru	14.797051	-1.138682	-1.138682
Ru	12.520587	1.138682	-1.138682
K	0.000000	-4.554730	-4.554730
K	2.276474	-6.832094	-6.832093
O	-0.887541	-3.667494	-8.222221
O	3.665398	-5.441966	-5.441966
O	0.887541	-5.441966	-8.222221
O	1.388924	-3.164603	-5.944857
O	5.440479	-3.667494	-5.441966
O	1.388924	-1.390121	-7.719340
O	3.164015	-1.390121	-5.944857
O	3.164015	-3.164603	-7.719340
Ru	-1.138232	-5.693412	-7.970775
Ru	1.138232	-3.416048	-7.970775
Ru	5.691171	-5.693412	-5.693412
Ru	3.414706	-3.416048	-5.693412
K	4.552940	0.000000	-4.554730
K	6.829414	-2.277363	-6.832093
O	3.665399	0.887236	-8.222221
O	8.218338	-0.887236	-5.441966
O	5.440481	-0.887236	-8.222221
O	5.941864	1.390127	-5.944857
O	9.993420	0.887236	-5.441966
O	5.941864	3.164610	-7.719340
O	7.716955	3.164610	-5.944857
O	7.716955	1.390127	-7.719340
Ru	3.414708	-1.138682	-7.970775
Ru	5.691172	1.138682	-7.970775
Ru	10.244111	-1.138682	-5.693412
Ru	7.967647	1.138682	-5.693412
