40

Mg	0.000000	0.000000	0.000000
O	2.038270	2.038270	0.000000
O	0.000000	2.038270	2.038270
O	2.038270	0.000000	2.038270
Yb	2.038270	2.038270	2.038270
Mg	0.000000	0.000000	4.076538
O	2.038270	2.038270	4.076538
O	0.000000	2.038270	6.114808
O	2.038270	0.000000	6.114808
Yb	2.038270	2.038270	6.114808
Mg	0.000000	4.076538	0.000000
O	2.038270	6.114808	0.000000
O	0.000000	6.114808	2.038270
O	2.038270	4.076538	2.038270
Yb	2.038270	6.114808	2.038270
Mg	0.000000	4.076538	4.076538
O	2.038270	6.114808	4.076538
O	0.000000	6.114808	6.114808
O	2.038270	4.076538	6.114808
Yb	2.038270	6.114808	6.114808
Mg	4.076538	0.000000	0.000000
O	6.114808	2.038270	0.000000
O	4.076538	2.038270	2.038270
O	6.114808	0.000000	2.038270
Yb	6.114808	2.038270	2.038270
Mg	4.076538	0.000000	4.076538
O	6.114808	2.038270	4.076538
O	4.076538	2.038270	6.114808
O	6.114808	0.000000	6.114808
Yb	6.114808	2.038270	6.114808
Mg	4.076538	4.076538	0.000000
O	6.114808	6.114808	0.000000
O	4.076538	6.114808	2.038270
O	6.114808	4.076538	2.038270
Yb	6.114808	6.114808	2.038270
Mg	4.076538	4.076538	4.076538
O	6.114808	6.114808	4.076538
O	4.076538	6.114808	6.114808
O	6.114808	4.076538	6.114808
Yb	6.114808	6.114808	6.114808
