40

Mg	1.915499	1.915499	1.915499
O	1.915499	1.915499	0.000000
O	0.000000	1.915499	1.915499
O	1.915499	0.000000	1.915499
Yb	0.000000	0.000000	0.000000
Mg	1.915499	1.915499	5.746491
O	1.915499	1.915499	3.830991
O	0.000000	1.915499	5.746491
O	1.915499	0.000000	5.746491
Yb	0.000000	0.000000	3.830991
Mg	1.915499	5.746491	1.915499
O	1.915499	5.746491	0.000000
O	0.000000	5.746491	1.915499
O	1.915499	3.830991	1.915499
Yb	0.000000	3.830991	0.000000
Mg	1.915499	5.746491	5.746491
O	1.915499	5.746491	3.830991
O	0.000000	5.746491	5.746491
O	1.915499	3.830991	5.746491
Yb	0.000000	3.830991	3.830991
Mg	5.746491	1.915499	1.915499
O	5.746491	1.915499	0.000000
O	3.830991	1.915499	1.915499
O	5.746491	0.000000	1.915499
Yb	3.830991	0.000000	0.000000
Mg	5.746491	1.915499	5.746491
O	5.746491	1.915499	3.830991
O	3.830991	1.915499	5.746491
O	5.746491	0.000000	5.746491
Yb	3.830991	0.000000	3.830991
Mg	5.746491	5.746491	1.915499
O	5.746491	5.746491	0.000000
O	3.830991	5.746491	1.915499
O	5.746491	3.830991	1.915499
Yb	3.830991	3.830991	0.000000
Mg	5.746491	5.746491	5.746491
O	5.746491	5.746491	3.830991
O	3.830991	5.746491	5.746491
O	5.746491	3.830991	5.746491
Yb	3.830991	3.830991	3.830991
