40

Li	0.000000	0.000000	0.000000
O	1.975377	1.975377	0.000000
O	1.975377	0.000000	1.975377
O	0.000000	1.975377	1.975377
Pd	1.975377	1.975377	1.975377
Li	0.000000	0.000000	3.950754
O	1.975377	1.975377	3.950754
O	1.975377	0.000000	5.926131
O	0.000000	1.975377	5.926131
Pd	1.975377	1.975377	5.926131
Li	0.000000	3.950754	0.000000
O	1.975377	5.926131	0.000000
O	1.975377	3.950754	1.975377
O	0.000000	5.926131	1.975377
Pd	1.975377	5.926131	1.975377
Li	0.000000	3.950754	3.950754
O	1.975377	5.926131	3.950754
O	1.975377	3.950754	5.926131
O	0.000000	5.926131	5.926131
Pd	1.975377	5.926131	5.926131
Li	3.950754	0.000000	0.000000
O	5.926131	1.975377	0.000000
O	5.926131	0.000000	1.975377
O	3.950754	1.975377	1.975377
Pd	5.926131	1.975377	1.975377
Li	3.950754	0.000000	3.950754
O	5.926131	1.975377	3.950754
O	5.926131	0.000000	5.926131
O	3.950754	1.975377	5.926131
Pd	5.926131	1.975377	5.926131
Li	3.950754	3.950754	0.000000
O	5.926131	5.926131	0.000000
O	5.926131	3.950754	1.975377
O	3.950754	5.926131	1.975377
Pd	5.926131	5.926131	1.975377
Li	3.950754	3.950754	3.950754
O	5.926131	5.926131	3.950754
O	5.926131	3.950754	5.926131
O	3.950754	5.926131	5.926131
Pd	5.926131	5.926131	5.926131
