112

Nb	0.000000	0.000000	0.000000
Nb	2.260112	-2.259452	-2.259452
O	3.365921	-1.153158	-1.153158
O	-1.154304	1.153158	-3.365745
O	1.154304	-1.153158	-3.365745
O	1.105809	1.106294	-1.106294
O	5.674528	1.153158	-1.153158
O	1.105809	3.412609	-3.412609
O	3.414416	3.412609	-1.106294
O	3.414416	1.106294	-3.412609
Pt	-1.130056	-1.129726	-3.389177
Pt	3.390169	1.129726	-1.129726
Pt	5.650281	-1.129726	-1.129726
Pt	1.130056	1.129726	-3.389177
Nb	4.520225	4.518903	0.000000
Nb	6.780337	2.259452	-2.259452
O	7.886146	3.365745	-1.153158
O	3.365921	5.672061	-3.365745
O	5.674528	3.365745	-3.365745
O	5.626033	5.625197	-1.106294
O	10.194753	5.672061	-1.153158
O	5.626033	7.931512	-3.412609
O	7.934641	7.931512	-1.106294
O	7.934641	5.625197	-3.412609
Pt	3.390169	3.389177	-3.389177
Pt	7.910393	5.648629	-1.129726
Pt	10.170506	3.389177	-1.129726
Pt	5.650281	5.648629	-3.389177
Nb	-4.520225	0.000000	-4.518903
Nb	-2.260112	-2.259452	-6.778355
O	-1.154304	-1.153158	-5.672061
O	-5.674528	1.153158	-7.884648
O	-3.365921	-1.153158	-7.884648
O	-3.414416	1.106294	-5.625197
O	1.154304	1.153158	-5.672061
O	-3.414416	3.412609	-7.931512
O	-1.105809	3.412609	-5.625197
O	-1.105809	1.106294	-7.931512
Pt	-5.650281	-1.129726	-7.908080
Pt	-1.130056	1.129726	-5.648629
Pt	1.130056	-1.129726	-5.648629
Pt	-3.390169	1.129726	-7.908080
Nb	0.000000	4.518903	-4.518903
Nb	2.260112	2.259452	-6.778355
O	3.365921	3.365745	-5.672061
O	-1.154304	5.672061	-7.884648
O	1.154304	3.365745	-7.884648
O	1.105809	5.625197	-5.625197
O	5.674528	5.672061	-5.672061
O	1.105809	7.931512	-7.931512
O	3.414416	7.931512	-5.625197
O	3.414416	5.625197	-7.931512
Pt	-1.130056	3.389177	-7.908080
Pt	3.390169	5.648629	-5.648629
Pt	5.650281	3.389177	-5.648629
Pt	1.130056	5.648629	-7.908080
Nb	4.520225	-4.518903	0.000000
Nb	6.780337	-6.778355	-2.259452
O	7.886146	-5.672061	-1.153158
O	3.365921	-3.365745	-3.365745
O	5.674528	-5.672061	-3.365745
O	5.626033	-3.412609	-1.106294
O	10.194753	-3.365745	-1.153158
O	5.626033	-1.106294	-3.412609
O	7.934641	-1.106294	-1.106294
O	7.934641	-3.412609	-3.412609
Pt	3.390169	-5.648629	-3.389177
Pt	7.910393	-3.389177	-1.129726
Pt	10.170506	-5.648629	-1.129726
Pt	5.650281	-3.389177	-3.389177
Nb	9.040449	0.000000	0.000000
Nb	11.300562	-2.259452	-2.259452
O	12.406370	-1.153158	-1.153158
O	7.886146	1.153158	-3.365745
O	10.194753	-1.153158	-3.365745
O	10.146258	1.106294	-1.106294
O	14.714978	1.153158	-1.153158
O	10.146258	3.412609	-3.412609
O	12.454865	3.412609	-1.106294
O	12.454865	1.106294	-3.412609
Pt	7.910393	-1.129726	-3.389177
Pt	12.430618	1.129726	-1.129726
Pt	14.690730	-1.129726	-1.129726
Pt	10.170506	1.129726	-3.389177
Nb	0.000000	-4.518903	-4.518903
Nb	2.260112	-6.778355	-6.778355
O	3.365921	-5.672061	-5.672061
O	-1.154304	-3.365745	-7.884648
O	1.154304	-5.672061	-7.884648
O	1.105809	-3.412609	-5.625197
O	5.674528	-3.365745	-5.672061
O	1.105809	-1.106294	-7.931512
O	3.414416	-1.106294	-5.625197
O	3.414416	-3.412609	-7.931512
Pt	-1.130056	-5.648629	-7.908080
Pt	3.390169	-3.389177	-5.648629
Pt	5.650281	-5.648629	-5.648629
Pt	1.130056	-3.389177	-7.908080
Nb	4.520225	0.000000	-4.518903
Nb	6.780337	-2.259452	-6.778355
O	7.886146	-1.153158	-5.672061
O	3.365921	1.153158	-7.884648
O	5.674528	-1.153158	-7.884648
O	5.626033	1.106294	-5.625197
O	10.194753	1.153158	-5.672061
O	5.626033	3.412609	-7.931512
O	7.934641	3.412609	-5.625197
O	7.934641	1.106294	-7.931512
Pt	3.390169	-1.129726	-7.908080
Pt	7.910393	1.129726	-5.648629
Pt	10.170506	-1.129726	-5.648629
Pt	5.650281	1.129726	-7.908080
