112

Ce	0.000000	0.000000	0.000000
Ce	2.472039	-2.472952	-2.472952
Gd	-1.236019	-1.236476	-3.709428
Gd	3.708058	1.236476	-1.236476
Gd	6.180097	-1.236476	-1.236476
Gd	1.236019	1.236476	-3.709428
O	3.831725	-1.112136	-1.112136
O	-1.112353	1.112136	-3.833769
O	1.112353	-1.112136	-3.833769
O	1.359686	1.360816	-1.360816
O	6.056431	1.112136	-1.112136
O	1.359686	3.585088	-3.585088
O	3.584392	3.585088	-1.360816
O	3.584392	1.360816	-3.585088
Ce	4.944078	4.945904	0.000000
Ce	7.416117	2.472952	-2.472952
Gd	3.708058	3.709428	-3.709428
Gd	8.652136	6.182380	-1.236476
Gd	11.124175	3.709428	-1.236476
Gd	6.180097	6.182380	-3.709428
O	8.775802	3.833769	-1.112136
O	3.831725	6.058040	-3.833769
O	6.056431	3.833769	-3.833769
O	6.303764	6.306721	-1.360816
O	11.000508	6.058040	-1.112136
O	6.303764	8.530992	-3.585088
O	8.528469	8.530992	-1.360816
O	8.528470	6.306721	-3.585088
Ce	-4.944078	0.000000	-4.945904
Ce	-2.472039	-2.472952	-7.418857
Gd	-6.180097	-1.236476	-8.655333
Gd	-1.236019	1.236476	-6.182380
Gd	1.236019	-1.236476	-6.182380
Gd	-3.708058	1.236476	-8.655333
O	-1.112353	-1.112136	-6.058040
O	-6.056431	1.112136	-8.779673
O	-3.831725	-1.112136	-8.779673
O	-3.584392	1.360816	-6.306721
O	1.112353	1.112136	-6.058040
O	-3.584392	3.585088	-8.530992
O	-1.359686	3.585088	-6.306721
O	-1.359686	1.360816	-8.530992
Ce	0.000000	4.945904	-4.945904
Ce	2.472039	2.472952	-7.418857
Gd	-1.236019	3.709428	-8.655333
Gd	3.708058	6.182380	-6.182380
Gd	6.180097	3.709428	-6.182380
Gd	1.236019	6.182380	-8.655333
O	3.831725	3.833769	-6.058040
O	-1.112353	6.058040	-8.779673
O	1.112353	3.833769	-8.779673
O	1.359686	6.306721	-6.306721
O	6.056431	6.058040	-6.058040
O	1.359686	8.530992	-8.530992
O	3.584392	8.530992	-6.306721
O	3.584392	6.306721	-8.530992
Ce	4.944078	-4.945904	0.000000
Ce	7.416117	-7.418857	-2.472952
Gd	3.708058	-6.182380	-3.709428
Gd	8.652136	-3.709428	-1.236476
Gd	11.124175	-6.182380	-1.236476
Gd	6.180097	-3.709428	-3.709428
O	8.775802	-6.058040	-1.112136
O	3.831725	-3.833769	-3.833769
O	6.056431	-6.058040	-3.833769
O	6.303764	-3.585088	-1.360816
O	11.000508	-3.833769	-1.112136
O	6.303764	-1.360816	-3.585088
O	8.528469	-1.360816	-1.360816
O	8.528470	-3.585088	-3.585088
Ce	9.888155	0.000000	0.000000
Ce	12.360194	-2.472952	-2.472952
Gd	8.652136	-1.236476	-3.709428
Gd	13.596214	1.236476	-1.236476
Gd	16.068252	-1.236476	-1.236476
Gd	11.124175	1.236476	-3.709428
O	13.719880	-1.112136	-1.112136
O	8.775802	1.112136	-3.833769
O	11.000508	-1.112136	-3.833769
O	11.247841	1.360816	-1.360816
O	15.944586	1.112136	-1.112136
O	11.247841	3.585088	-3.585088
O	13.472547	3.585088	-1.360816
O	13.472547	1.360816	-3.585088
Ce	0.000000	-4.945904	-4.945904
Ce	2.472039	-7.418857	-7.418857
Gd	-1.236019	-6.182380	-8.655333
Gd	3.708058	-3.709428	-6.182380
Gd	6.180097	-6.182380	-6.182380
Gd	1.236019	-3.709428	-8.655333
O	3.831725	-6.058040	-6.058040
O	-1.112353	-3.833769	-8.779673
O	1.112353	-6.058040	-8.779673
O	1.359686	-3.585088	-6.306721
O	6.056431	-3.833769	-6.058040
O	1.359686	-1.360816	-8.530992
O	3.584392	-1.360816	-6.306721
O	3.584392	-3.585088	-8.530992
Ce	4.944078	0.000000	-4.945904
Ce	7.416117	-2.472952	-7.418857
Gd	3.708058	-1.236476	-8.655333
Gd	8.652136	1.236476	-6.182380
Gd	11.124175	-1.236476	-6.182380
Gd	6.180097	1.236476	-8.655333
O	8.775802	-1.112136	-6.058040
O	3.831725	1.112136	-8.779673
O	6.056431	-1.112136	-8.779673
O	6.303764	1.360816	-6.306721
O	11.000508	1.112136	-6.058040
O	6.303764	3.585088	-8.530992
O	8.528469	3.585088	-6.306721
O	8.528470	1.360816	-8.530992
