40

Eu	2.150625	2.150625	2.150625
Gd	0.000000	0.000000	0.000000
O	2.150625	2.150625	0.000000
O	2.150625	0.000000	2.150625
O	0.000000	2.150625	2.150625
Eu	2.150625	2.150625	6.451874
Gd	0.000000	0.000000	4.301249
O	2.150625	2.150625	4.301249
O	2.150625	0.000000	6.451874
O	0.000000	2.150625	6.451874
Eu	2.150625	6.451874	2.150625
Gd	0.000000	4.301249	0.000000
O	2.150625	6.451874	0.000000
O	2.150625	4.301249	2.150625
O	0.000000	6.451874	2.150625
Eu	2.150625	6.451874	6.451874
Gd	0.000000	4.301249	4.301249
O	2.150625	6.451874	4.301249
O	2.150625	4.301249	6.451874
O	0.000000	6.451874	6.451874
Eu	6.451874	2.150625	2.150625
Gd	4.301249	0.000000	0.000000
O	6.451874	2.150625	0.000000
O	6.451874	0.000000	2.150625
O	4.301249	2.150625	2.150625
Eu	6.451874	2.150625	6.451874
Gd	4.301249	0.000000	4.301249
O	6.451874	2.150625	4.301249
O	6.451874	0.000000	6.451874
O	4.301249	2.150625	6.451874
Eu	6.451874	6.451874	2.150625
Gd	4.301249	4.301249	0.000000
O	6.451874	6.451874	0.000000
O	6.451874	4.301249	2.150625
O	4.301249	6.451874	2.150625
Eu	6.451874	6.451874	6.451874
Gd	4.301249	4.301249	4.301249
O	6.451874	6.451874	4.301249
O	6.451874	4.301249	6.451874
O	4.301249	6.451874	6.451874
