112

Cu	0.000000	0.000000	0.000000
Cu	2.354253	-2.326811	-2.326811
Dy	-1.177126	-1.163401	-3.490212
Dy	3.531379	1.163401	-1.163401
Dy	1.177126	1.163401	-3.490212
Dy	5.885632	-1.163401	-1.163401
O	-1.108374	1.107770	-3.545842
O	3.600132	-1.107770	-1.107770
O	1.108374	-1.107770	-3.545842
O	1.245879	1.219041	-1.219041
O	5.816879	1.107770	-1.107770
O	1.245879	3.434581	-3.434581
O	3.462627	3.434581	-1.219041
O	3.462627	1.219041	-3.434581
Cu	4.708504	4.653617	0.000000
Cu	7.062757	2.326806	-2.326811
Dy	3.531378	3.490216	-3.490212
Dy	8.239884	5.817018	-1.163401
Dy	5.885631	5.817018	-3.490212
Dy	10.594136	3.490216	-1.163401
O	3.600130	5.761388	-3.545842
O	8.308636	3.545847	-1.107770
O	5.816878	3.545847	-3.545842
O	5.954383	5.872658	-1.219041
O	10.525384	5.761388	-1.107770
O	5.954383	8.088199	-3.434581
O	8.171131	8.088199	-1.219041
O	8.171131	5.872658	-3.434581
Cu	-4.708504	0.000000	-4.653617
Cu	-2.354252	-2.326811	-6.980428
Dy	-5.885631	-1.163401	-8.143829
Dy	-1.177125	1.163401	-5.817018
Dy	-3.531378	1.163401	-8.143829
Dy	1.177127	-1.163401	-5.817018
O	-5.816878	1.107770	-8.199460
O	-1.108373	-1.107770	-5.761388
O	-3.600130	-1.107770	-8.199460
O	-3.462626	1.219041	-5.872658
O	1.108375	1.107770	-5.761388
O	-3.462626	3.434581	-8.088199
O	-1.245878	3.434581	-5.872658
O	-1.245878	1.219041	-8.088199
Cu	0.000000	4.653617	-4.653617
Cu	2.354253	2.326806	-6.980428
Dy	-1.177126	3.490216	-8.143829
Dy	3.531379	5.817018	-5.817018
Dy	1.177126	5.817018	-8.143829
Dy	5.885632	3.490216	-5.817018
O	-1.108374	5.761388	-8.199460
O	3.600132	3.545847	-5.761388
O	1.108374	3.545847	-8.199460
O	1.245879	5.872658	-5.872658
O	5.816879	5.761388	-5.761388
O	1.245879	8.088199	-8.088199
O	3.462627	8.088199	-5.872658
O	3.462627	5.872658	-8.088199
Cu	4.708504	-4.653617	0.000000
Cu	7.062757	-6.980428	-2.326811
Dy	3.531378	-5.817018	-3.490212
Dy	8.239884	-3.490216	-1.163401
Dy	5.885631	-3.490216	-3.490212
Dy	10.594136	-5.817018	-1.163401
O	3.600130	-3.545847	-3.545842
O	8.308636	-5.761388	-1.107770
O	5.816878	-5.761388	-3.545842
O	5.954383	-3.434577	-1.219041
O	10.525384	-3.545847	-1.107770
O	5.954383	-1.219036	-3.434581
O	8.171131	-1.219036	-1.219041
O	8.171131	-3.434577	-3.434581
Cu	9.417009	0.000000	0.000000
Cu	11.771262	-2.326811	-2.326811
Dy	8.239882	-1.163401	-3.490212
Dy	12.948388	1.163401	-1.163401
Dy	10.594135	1.163401	-3.490212
Dy	15.302641	-1.163401	-1.163401
O	8.308635	1.107770	-3.545842
O	13.017140	-1.107770	-1.107770
O	10.525383	-1.107770	-3.545842
O	10.662888	1.219041	-1.219041
O	15.233888	1.107770	-1.107770
O	10.662888	3.434581	-3.434581
O	12.879636	3.434581	-1.219041
O	12.879636	1.219041	-3.434581
Cu	0.000000	-4.653617	-4.653617
Cu	2.354253	-6.980428	-6.980428
Dy	-1.177126	-5.817018	-8.143829
Dy	3.531379	-3.490216	-5.817018
Dy	1.177126	-3.490216	-8.143829
Dy	5.885632	-5.817018	-5.817018
O	-1.108374	-3.545847	-8.199460
O	3.600132	-5.761388	-5.761388
O	1.108374	-5.761388	-8.199460
O	1.245879	-3.434577	-5.872658
O	5.816879	-3.545847	-5.761388
O	1.245879	-1.219036	-8.088199
O	3.462627	-1.219036	-5.872658
O	3.462627	-3.434577	-8.088199
Cu	4.708504	0.000000	-4.653617
Cu	7.062757	-2.326811	-6.980428
Dy	3.531378	-1.163401	-8.143829
Dy	8.239884	1.163401	-5.817018
Dy	5.885631	1.163401	-8.143829
Dy	10.594136	-1.163401	-5.817018
O	3.600130	1.107770	-8.199460
O	8.308636	-1.107770	-5.761388
O	5.816878	-1.107770	-8.199460
O	5.954383	1.219041	-5.872658
O	10.525384	1.107770	-5.761388
O	5.954383	3.434581	-8.088199
O	8.171131	3.434581	-5.872658
O	8.171131	1.219041	-8.088199
