40

Hf	2.053448	2.053448	2.053448
O	2.053448	2.053448	0.000000
O	0.000000	2.053448	2.053448
O	2.053448	0.000000	2.053448
Sr	0.000000	0.000000	0.000000
Hf	2.053448	2.053448	6.160344
O	2.053448	2.053448	4.106896
O	0.000000	2.053448	6.160344
O	2.053448	0.000000	6.160344
Sr	0.000000	0.000000	4.106896
Hf	2.053448	6.160344	2.053448
O	2.053448	6.160344	0.000000
O	0.000000	6.160344	2.053448
O	2.053448	4.106896	2.053448
Sr	0.000000	4.106896	0.000000
Hf	2.053448	6.160344	6.160344
O	2.053448	6.160344	4.106896
O	0.000000	6.160344	6.160344
O	2.053448	4.106896	6.160344
Sr	0.000000	4.106896	4.106896
Hf	6.160344	2.053448	2.053448
O	6.160344	2.053448	0.000000
O	4.106896	2.053448	2.053448
O	6.160344	0.000000	2.053448
Sr	4.106896	0.000000	0.000000
Hf	6.160344	2.053448	6.160344
O	6.160344	2.053448	4.106896
O	4.106896	2.053448	6.160344
O	6.160344	0.000000	6.160344
Sr	4.106896	0.000000	4.106896
Hf	6.160344	6.160344	2.053448
O	6.160344	6.160344	0.000000
O	4.106896	6.160344	2.053448
O	6.160344	4.106896	2.053448
Sr	4.106896	4.106896	0.000000
Hf	6.160344	6.160344	6.160344
O	6.160344	6.160344	4.106896
O	4.106896	6.160344	6.160344
O	6.160344	4.106896	6.160344
Sr	4.106896	4.106896	4.106896
