40

Eu	0.000000	0.000000	0.000000
Hf	2.032770	2.032770	2.032770
O	2.032770	0.000000	2.032770
O	0.000000	2.032770	2.032770
O	2.032770	2.032770	0.000000
Eu	0.000000	0.000000	4.065551
Hf	2.032770	2.032770	6.098321
O	2.032770	0.000000	6.098321
O	0.000000	2.032770	6.098321
O	2.032770	2.032770	4.065551
Eu	0.000000	4.065551	0.000000
Hf	2.032770	6.098321	2.032770
O	2.032770	4.065551	2.032770
O	0.000000	6.098321	2.032770
O	2.032770	6.098321	0.000000
Eu	0.000000	4.065551	4.065551
Hf	2.032770	6.098321	6.098321
O	2.032770	4.065551	6.098321
O	0.000000	6.098321	6.098321
O	2.032770	6.098321	4.065551
Eu	4.065551	0.000000	0.000000
Hf	6.098321	2.032770	2.032770
O	6.098321	0.000000	2.032770
O	4.065551	2.032770	2.032770
O	6.098321	2.032770	0.000000
Eu	4.065551	0.000000	4.065551
Hf	6.098321	2.032770	6.098321
O	6.098321	0.000000	6.098321
O	4.065551	2.032770	6.098321
O	6.098321	2.032770	4.065551
Eu	4.065551	4.065551	0.000000
Hf	6.098321	6.098321	2.032770
O	6.098321	4.065551	2.032770
O	4.065551	6.098321	2.032770
O	6.098321	6.098321	0.000000
Eu	4.065551	4.065551	4.065551
Hf	6.098321	6.098321	6.098321
O	6.098321	4.065551	6.098321
O	4.065551	6.098321	6.098321
O	6.098321	6.098321	4.065551
