40

Co	1.817141	1.817141	1.817141
O	1.817141	1.817141	0.000000
O	1.817141	0.000000	1.817141
O	0.000000	1.817141	1.817141
Os	0.000000	0.000000	0.000000
Co	1.817141	1.817141	5.451421
O	1.817141	1.817141	3.634281
O	1.817141	0.000000	5.451421
O	0.000000	1.817141	5.451421
Os	0.000000	0.000000	3.634281
Co	1.817141	5.451421	1.817141
O	1.817141	5.451421	0.000000
O	1.817141	3.634281	1.817141
O	0.000000	5.451421	1.817141
Os	0.000000	3.634281	0.000000
Co	1.817141	5.451421	5.451421
O	1.817141	5.451421	3.634281
O	1.817141	3.634281	5.451421
O	0.000000	5.451421	5.451421
Os	0.000000	3.634281	3.634281
Co	5.451421	1.817141	1.817141
O	5.451421	1.817141	0.000000
O	5.451421	0.000000	1.817141
O	3.634281	1.817141	1.817141
Os	3.634281	0.000000	0.000000
Co	5.451421	1.817141	5.451421
O	5.451421	1.817141	3.634281
O	5.451421	0.000000	5.451421
O	3.634281	1.817141	5.451421
Os	3.634281	0.000000	3.634281
Co	5.451421	5.451421	1.817141
O	5.451421	5.451421	0.000000
O	5.451421	3.634281	1.817141
O	3.634281	5.451421	1.817141
Os	3.634281	3.634281	0.000000
Co	5.451421	5.451421	5.451421
O	5.451421	5.451421	3.634281
O	5.451421	3.634281	5.451421
O	3.634281	5.451421	5.451421
Os	3.634281	3.634281	3.634281
