40

O	0.000000	2.127477	2.127477
O	2.127477	0.000000	2.127477
O	2.127477	2.127477	0.000000
Se	0.000000	0.000000	0.000000
Tl	2.127477	2.127477	2.127477
O	0.000000	2.127477	6.382430
O	2.127477	0.000000	6.382430
O	2.127477	2.127477	4.254953
Se	0.000000	0.000000	4.254953
Tl	2.127477	2.127477	6.382430
O	0.000000	6.382430	2.127477
O	2.127477	4.254953	2.127477
O	2.127477	6.382430	0.000000
Se	0.000000	4.254953	0.000000
Tl	2.127477	6.382430	2.127477
O	0.000000	6.382430	6.382430
O	2.127477	4.254953	6.382430
O	2.127477	6.382430	4.254953
Se	0.000000	4.254953	4.254953
Tl	2.127477	6.382430	6.382430
O	4.254953	2.127477	2.127477
O	6.382430	0.000000	2.127477
O	6.382430	2.127477	0.000000
Se	4.254953	0.000000	0.000000
Tl	6.382430	2.127477	2.127477
O	4.254953	2.127477	6.382430
O	6.382430	0.000000	6.382430
O	6.382430	2.127477	4.254953
Se	4.254953	0.000000	4.254953
Tl	6.382430	2.127477	6.382430
O	4.254953	6.382430	2.127477
O	6.382430	4.254953	2.127477
O	6.382430	6.382430	0.000000
Se	4.254953	4.254953	0.000000
Tl	6.382430	6.382430	2.127477
O	4.254953	6.382430	6.382430
O	6.382430	4.254953	6.382430
O	6.382430	6.382430	4.254953
Se	4.254953	4.254953	4.254953
Tl	6.382430	6.382430	6.382430
