112

Ga	0.000000	0.000000	0.000000
Ga	2.366925	-2.376821	-2.376821
O	1.097287	1.101953	-1.101953
O	1.269630	-1.274868	-3.478782
O	3.464212	-1.274868	-1.274868
O	-1.269630	1.274868	-3.478782
O	3.636555	3.651696	-1.101953
O	3.636555	1.101953	-3.651696
O	1.097287	3.651696	-3.651696
O	6.003480	1.274868	-1.274868
Pu	-1.183463	-1.188411	-3.565239
Pu	3.550388	1.188411	-1.188411
Pu	1.183463	1.188411	-3.565239
Pu	5.917320	-1.188411	-1.188411
Ga	4.733849	4.753654	0.000000
Ga	7.100774	2.376833	-2.376821
O	5.831136	5.855607	-1.101953
O	6.003479	3.478786	-3.478782
O	8.198061	3.478786	-1.274868
O	3.464219	6.028521	-3.478782
O	8.370404	8.405350	-1.101953
O	8.370404	5.855607	-3.651696
O	5.831136	8.405350	-3.651696
O	10.737329	6.028521	-1.274868
Pu	3.550387	3.565243	-3.565239
Pu	8.284237	5.942064	-1.188411
Pu	5.917312	5.942064	-3.565239
Pu	10.651169	3.565243	-1.188411
Ga	-4.733849	0.000000	-4.753654
Ga	-2.366924	-2.376821	-7.130475
O	-3.636562	1.101953	-5.855607
O	-3.464219	-1.274868	-8.232436
O	-1.269637	-1.274868	-6.028521
O	-6.003479	1.274868	-8.232436
O	-1.097294	3.651696	-5.855607
O	-1.097294	1.101953	-8.405350
O	-3.636562	3.651696	-8.405350
O	1.269631	1.274868	-6.028521
Pu	-5.917312	-1.188411	-8.318893
Pu	-1.183462	1.188411	-5.942064
Pu	-3.550387	1.188411	-8.318893
Pu	1.183471	-1.188411	-5.942064
Ga	0.000000	4.753654	-4.753654
Ga	2.366925	2.376833	-7.130475
O	1.097287	5.855607	-5.855607
O	1.269630	3.478786	-8.232436
O	3.464212	3.478786	-6.028521
O	-1.269630	6.028521	-8.232436
O	3.636555	8.405350	-5.855607
O	3.636555	5.855607	-8.405350
O	1.097287	8.405350	-8.405350
O	6.003480	6.028521	-6.028521
Pu	-1.183463	3.565243	-8.318893
Pu	3.550388	5.942064	-5.942064
Pu	1.183463	5.942064	-8.318893
Pu	5.917320	3.565243	-5.942064
Ga	4.733849	-4.753654	0.000000
Ga	7.100774	-7.130475	-2.376821
O	5.831136	-3.651700	-1.101953
O	6.003479	-6.028521	-3.478782
O	8.198061	-6.028521	-1.274868
O	3.464219	-3.478786	-3.478782
O	8.370404	-1.101957	-1.101953
O	8.370404	-3.651700	-3.651696
O	5.831136	-1.101957	-3.651696
O	10.737329	-3.478786	-1.274868
Pu	3.550387	-5.942064	-3.565239
Pu	8.284237	-3.565243	-1.188411
Pu	5.917312	-3.565243	-3.565239
Pu	10.651169	-5.942064	-1.188411
Ga	9.467698	0.000000	0.000000
Ga	11.834623	-2.376821	-2.376821
O	10.564985	1.101953	-1.101953
O	10.737328	-1.274868	-3.478782
O	12.931910	-1.274868	-1.274868
O	8.198068	1.274868	-3.478782
O	13.104253	3.651696	-1.101953
O	13.104253	1.101953	-3.651696
O	10.564985	3.651696	-3.651696
O	15.471179	1.274868	-1.274868
Pu	8.284236	-1.188411	-3.565239
Pu	13.018086	1.188411	-1.188411
Pu	10.651161	1.188411	-3.565239
Pu	15.385018	-1.188411	-1.188411
Ga	0.000000	-4.753654	-4.753654
Ga	2.366925	-7.130475	-7.130475
O	1.097287	-3.651700	-5.855607
O	1.269630	-6.028521	-8.232436
O	3.464212	-6.028521	-6.028521
O	-1.269630	-3.478786	-8.232436
O	3.636555	-1.101957	-5.855607
O	3.636555	-3.651700	-8.405350
O	1.097287	-1.101957	-8.405350
O	6.003480	-3.478786	-6.028521
Pu	-1.183463	-5.942064	-8.318893
Pu	3.550388	-3.565243	-5.942064
Pu	1.183463	-3.565243	-8.318893
Pu	5.917320	-5.942064	-5.942064
Ga	4.733849	0.000000	-4.753654
Ga	7.100774	-2.376821	-7.130475
O	5.831136	1.101953	-5.855607
O	6.003479	-1.274868	-8.232436
O	8.198061	-1.274868	-6.028521
O	3.464219	1.274868	-8.232436
O	8.370404	3.651696	-5.855607
O	8.370404	1.101953	-8.405350
O	5.831136	3.651696	-8.405350
O	10.737329	1.274868	-6.028521
Pu	3.550387	-1.188411	-8.318893
Pu	8.284237	1.188411	-5.942064
Pu	5.917312	1.188411	-8.318893
Pu	10.651169	-1.188411	-5.942064
