40

Ba	2.287249	2.287249	2.287249
Ni	0.000000	0.000000	0.000000
O	0.000000	2.287249	2.287249
O	2.287249	0.000000	2.287249
O	2.287249	2.287249	0.000000
Ba	2.287249	2.287249	6.861746
Ni	0.000000	0.000000	4.574498
O	0.000000	2.287249	6.861746
O	2.287249	0.000000	6.861746
O	2.287249	2.287249	4.574498
Ba	2.287249	6.861746	2.287249
Ni	0.000000	4.574498	0.000000
O	0.000000	6.861746	2.287249
O	2.287249	4.574498	2.287249
O	2.287249	6.861746	0.000000
Ba	2.287249	6.861746	6.861746
Ni	0.000000	4.574498	4.574498
O	0.000000	6.861746	6.861746
O	2.287249	4.574498	6.861746
O	2.287249	6.861746	4.574498
Ba	6.861746	2.287249	2.287249
Ni	4.574498	0.000000	0.000000
O	4.574498	2.287249	2.287249
O	6.861746	0.000000	2.287249
O	6.861746	2.287249	0.000000
Ba	6.861746	2.287249	6.861746
Ni	4.574498	0.000000	4.574498
O	4.574498	2.287249	6.861746
O	6.861746	0.000000	6.861746
O	6.861746	2.287249	4.574498
Ba	6.861746	6.861746	2.287249
Ni	4.574498	4.574498	0.000000
O	4.574498	6.861746	2.287249
O	6.861746	4.574498	2.287249
O	6.861746	6.861746	0.000000
Ba	6.861746	6.861746	6.861746
Ni	4.574498	4.574498	4.574498
O	4.574498	6.861746	6.861746
O	6.861746	4.574498	6.861746
O	6.861746	6.861746	4.574498
