40

Ag	0.000000	0.000000	0.000000
O	0.000000	1.790107	1.790107
O	1.790107	0.000000	1.790107
O	1.790107	1.790107	0.000000
P	1.790107	1.790107	1.790107
Ag	0.000000	0.000000	3.580214
O	0.000000	1.790107	5.370321
O	1.790107	0.000000	5.370321
O	1.790107	1.790107	3.580214
P	1.790107	1.790107	5.370321
Ag	0.000000	3.580214	0.000000
O	0.000000	5.370321	1.790107
O	1.790107	3.580214	1.790107
O	1.790107	5.370321	0.000000
P	1.790107	5.370321	1.790107
Ag	0.000000	3.580214	3.580214
O	0.000000	5.370321	5.370321
O	1.790107	3.580214	5.370321
O	1.790107	5.370321	3.580214
P	1.790107	5.370321	5.370321
Ag	3.580214	0.000000	0.000000
O	3.580214	1.790107	1.790107
O	5.370321	0.000000	1.790107
O	5.370321	1.790107	0.000000
P	5.370321	1.790107	1.790107
Ag	3.580214	0.000000	3.580214
O	3.580214	1.790107	5.370321
O	5.370321	0.000000	5.370321
O	5.370321	1.790107	3.580214
P	5.370321	1.790107	5.370321
Ag	3.580214	3.580214	0.000000
O	3.580214	5.370321	1.790107
O	5.370321	3.580214	1.790107
O	5.370321	5.370321	0.000000
P	5.370321	5.370321	1.790107
Ag	3.580214	3.580214	3.580214
O	3.580214	5.370321	5.370321
O	5.370321	3.580214	5.370321
O	5.370321	5.370321	3.580214
P	5.370321	5.370321	5.370321
