40

Bi	0.000000	0.000000	0.000000
Na	2.034179	2.034179	2.034179
O	0.000000	2.034179	2.034179
O	2.034179	0.000000	2.034179
O	2.034179	2.034179	0.000000
Bi	0.000000	0.000000	4.068357
Na	2.034179	2.034179	6.102536
O	0.000000	2.034179	6.102536
O	2.034179	0.000000	6.102536
O	2.034179	2.034179	4.068357
Bi	0.000000	4.068357	0.000000
Na	2.034179	6.102536	2.034179
O	0.000000	6.102536	2.034179
O	2.034179	4.068357	2.034179
O	2.034179	6.102536	0.000000
Bi	0.000000	4.068357	4.068357
Na	2.034179	6.102536	6.102536
O	0.000000	6.102536	6.102536
O	2.034179	4.068357	6.102536
O	2.034179	6.102536	4.068357
Bi	4.068357	0.000000	0.000000
Na	6.102536	2.034179	2.034179
O	4.068357	2.034179	2.034179
O	6.102536	0.000000	2.034179
O	6.102536	2.034179	0.000000
Bi	4.068357	0.000000	4.068357
Na	6.102536	2.034179	6.102536
O	4.068357	2.034179	6.102536
O	6.102536	0.000000	6.102536
O	6.102536	2.034179	4.068357
Bi	4.068357	4.068357	0.000000
Na	6.102536	6.102536	2.034179
O	4.068357	6.102536	2.034179
O	6.102536	4.068357	2.034179
O	6.102536	6.102536	0.000000
Bi	4.068357	4.068357	4.068357
Na	6.102536	6.102536	6.102536
O	4.068357	6.102536	6.102536
O	6.102536	4.068357	6.102536
O	6.102536	6.102536	4.068357
