40

O	0.000000	2.043126	2.043126
O	2.043126	0.000000	2.043126
O	2.043126	2.043126	0.000000
Os	0.000000	0.000000	0.000000
Sb	2.043126	2.043126	2.043126
O	0.000000	2.043126	6.129378
O	2.043126	0.000000	6.129378
O	2.043126	2.043126	4.086252
Os	0.000000	0.000000	4.086252
Sb	2.043126	2.043126	6.129378
O	0.000000	6.129378	2.043126
O	2.043126	4.086252	2.043126
O	2.043126	6.129378	0.000000
Os	0.000000	4.086252	0.000000
Sb	2.043126	6.129378	2.043126
O	0.000000	6.129378	6.129378
O	2.043126	4.086252	6.129378
O	2.043126	6.129378	4.086252
Os	0.000000	4.086252	4.086252
Sb	2.043126	6.129378	6.129378
O	4.086252	2.043126	2.043126
O	6.129378	0.000000	2.043126
O	6.129378	2.043126	0.000000
Os	4.086252	0.000000	0.000000
Sb	6.129378	2.043126	2.043126
O	4.086252	2.043126	6.129378
O	6.129378	0.000000	6.129378
O	6.129378	2.043126	4.086252
Os	4.086252	0.000000	4.086252
Sb	6.129378	2.043126	6.129378
O	4.086252	6.129378	2.043126
O	6.129378	4.086252	2.043126
O	6.129378	6.129378	0.000000
Os	4.086252	4.086252	0.000000
Sb	6.129378	6.129378	2.043126
O	4.086252	6.129378	6.129378
O	6.129378	4.086252	6.129378
O	6.129378	6.129378	4.086252
Os	4.086252	4.086252	4.086252
Sb	6.129378	6.129378	6.129378
