40

O	0.000000	2.046705	2.046705
O	2.046705	0.000000	2.046705
O	2.046705	2.046705	0.000000
Os	0.000000	0.000000	0.000000
Sb	2.046705	2.046705	2.046705
O	0.000000	2.046705	6.140115
O	2.046705	0.000000	6.140115
O	2.046705	2.046705	4.093410
Os	0.000000	0.000000	4.093410
Sb	2.046705	2.046705	6.140115
O	0.000000	6.140115	2.046705
O	2.046705	4.093410	2.046705
O	2.046705	6.140115	0.000000
Os	0.000000	4.093410	0.000000
Sb	2.046705	6.140115	2.046705
O	0.000000	6.140115	6.140115
O	2.046705	4.093410	6.140115
O	2.046705	6.140115	4.093410
Os	0.000000	4.093410	4.093410
Sb	2.046705	6.140115	6.140115
O	4.093410	2.046705	2.046705
O	6.140115	0.000000	2.046705
O	6.140115	2.046705	0.000000
Os	4.093410	0.000000	0.000000
Sb	6.140115	2.046705	2.046705
O	4.093410	2.046705	6.140115
O	6.140115	0.000000	6.140115
O	6.140115	2.046705	4.093410
Os	4.093410	0.000000	4.093410
Sb	6.140115	2.046705	6.140115
O	4.093410	6.140115	2.046705
O	6.140115	4.093410	2.046705
O	6.140115	6.140115	0.000000
Os	4.093410	4.093410	0.000000
Sb	6.140115	6.140115	2.046705
O	4.093410	6.140115	6.140115
O	6.140115	4.093410	6.140115
O	6.140115	6.140115	4.093410
Os	4.093410	4.093410	4.093410
Sb	6.140115	6.140115	6.140115
