40

O	1.937041	1.937041	0.000000
O	0.000000	1.937041	1.937041
O	1.937041	0.000000	1.937041
Tl	0.000000	0.000000	0.000000
Zn	1.937041	1.937041	1.937041
O	1.937041	1.937041	3.874090
O	0.000000	1.937041	5.811131
O	1.937041	0.000000	5.811131
Tl	0.000000	0.000000	3.874090
Zn	1.937041	1.937041	5.811131
O	1.937041	5.811131	0.000000
O	0.000000	5.811131	1.937041
O	1.937041	3.874090	1.937041
Tl	0.000000	3.874090	0.000000
Zn	1.937041	5.811131	1.937041
O	1.937041	5.811131	3.874090
O	0.000000	5.811131	5.811131
O	1.937041	3.874090	5.811131
Tl	0.000000	3.874090	3.874090
Zn	1.937041	5.811131	5.811131
O	5.811131	1.937041	0.000000
O	3.874090	1.937041	1.937041
O	5.811131	0.000000	1.937041
Tl	3.874090	0.000000	0.000000
Zn	5.811131	1.937041	1.937041
O	5.811131	1.937041	3.874090
O	3.874090	1.937041	5.811131
O	5.811131	0.000000	5.811131
Tl	3.874090	0.000000	3.874090
Zn	5.811131	1.937041	5.811131
O	5.811131	5.811131	0.000000
O	3.874090	5.811131	1.937041
O	5.811131	3.874090	1.937041
Tl	3.874090	3.874090	0.000000
Zn	5.811131	5.811131	1.937041
O	5.811131	5.811131	3.874090
O	3.874090	5.811131	5.811131
O	5.811131	3.874090	5.811131
Tl	3.874090	3.874090	3.874090
Zn	5.811131	5.811131	5.811131
