40

Fe	1.887151	1.887151	1.887151
Ge	0.000000	0.000000	0.000000
O	1.887151	1.887151	0.000000
O	1.887151	0.000000	1.887151
O	0.000000	1.887151	1.887151
Fe	1.887151	1.887151	5.661445
Ge	0.000000	0.000000	3.774294
O	1.887151	1.887151	3.774294
O	1.887151	0.000000	5.661445
O	0.000000	1.887151	5.661445
Fe	1.887151	5.661445	1.887151
Ge	0.000000	3.774294	0.000000
O	1.887151	5.661445	0.000000
O	1.887151	3.774294	1.887151
O	0.000000	5.661445	1.887151
Fe	1.887151	5.661445	5.661445
Ge	0.000000	3.774294	3.774294
O	1.887151	5.661445	3.774294
O	1.887151	3.774294	5.661445
O	0.000000	5.661445	5.661445
Fe	5.661445	1.887151	1.887151
Ge	3.774294	0.000000	0.000000
O	5.661445	1.887151	0.000000
O	5.661445	0.000000	1.887151
O	3.774294	1.887151	1.887151
Fe	5.661445	1.887151	5.661445
Ge	3.774294	0.000000	3.774294
O	5.661445	1.887151	3.774294
O	5.661445	0.000000	5.661445
O	3.774294	1.887151	5.661445
Fe	5.661445	5.661445	1.887151
Ge	3.774294	3.774294	0.000000
O	5.661445	5.661445	0.000000
O	5.661445	3.774294	1.887151
O	3.774294	5.661445	1.887151
Fe	5.661445	5.661445	5.661445
Ge	3.774294	3.774294	3.774294
O	5.661445	5.661445	3.774294
O	5.661445	3.774294	5.661445
O	3.774294	5.661445	5.661445
