176

Eu	-1.281616	-3.844847	-1.281616
Eu	1.281616	-1.281616	3.844847
Eu	-1.281616	-1.281616	6.408078
Eu	1.281616	-3.844847	1.281616
O	-2.563231	-0.568176	2.563231
O	-2.563231	-2.563231	0.568176
O	-4.558286	-2.563231	2.563231
O	0.000000	0.000000	1.995055
O	-3.131407	0.000000	5.126462
O	0.000000	-1.995055	-0.000000
O	-0.568176	-2.563231	2.563231
O	-2.563231	-2.563231	4.558286
O	-2.563231	-4.558286	2.563231
O	0.000000	0.000000	5.126462
O	2.563231	-2.563231	2.563231
O	3.131407	0.000000	5.126462
O	0.000000	0.000000	8.257870
O	0.000000	-3.131407	5.126462
Ru	-1.281616	-1.281616	1.281616
Ru	-3.844847	-1.281616	3.844847
Ru	-3.844847	-3.844847	1.281616
Ru	-1.281616	-3.844847	3.844847
Eu	3.844847	-3.844847	3.844847
Eu	6.408078	-1.281616	8.971309
Eu	3.844847	-1.281616	11.534540
Eu	6.408078	-3.844847	6.408078
O	2.563231	-0.568176	7.689694
O	2.563231	-2.563231	5.694639
O	0.568176	-2.563231	7.689693
O	5.126462	0.000000	7.121517
O	1.995055	0.000000	10.252925
O	5.126462	-1.995055	5.126462
O	4.558286	-2.563231	7.689693
O	2.563231	-2.563231	9.684748
O	2.563231	-4.558286	7.689693
O	5.126462	0.000000	10.252925
O	7.689693	-2.563231	7.689693
O	8.257870	0.000000	10.252925
O	5.126462	0.000000	13.384332
O	5.126462	-3.131407	10.252925
Ru	3.844847	-1.281616	6.408078
Ru	1.281616	-1.281616	8.971309
Ru	1.281616	-3.844847	6.408078
Ru	3.844847	-3.844847	8.971309
Eu	-1.281616	-8.971309	-6.408078
Eu	1.281616	-6.408078	-1.281616
Eu	-1.281616	-6.408078	1.281616
Eu	1.281616	-8.971309	-3.844847
O	-2.563231	-5.694639	-2.563231
O	-2.563231	-7.689693	-4.558286
O	-4.558286	-7.689693	-2.563231
O	0.000000	-5.126462	-3.131407
O	-3.131407	-5.126462	0.000000
O	0.000000	-7.121517	-5.126462
O	-0.568176	-7.689693	-2.563231
O	-2.563231	-7.689693	-0.568176
O	-2.563231	-9.684748	-2.563231
O	0.000000	-5.126462	0.000000
O	2.563231	-7.689693	-2.563231
O	3.131407	-5.126462	0.000000
O	0.000000	-5.126462	3.131407
O	0.000000	-8.257870	0.000000
Ru	-1.281616	-6.408078	-3.844847
Ru	-3.844847	-6.408078	-1.281616
Ru	-3.844847	-8.971309	-3.844847
Ru	-1.281616	-8.971309	-1.281616
Eu	3.844847	-8.971309	-1.281616
Eu	6.408078	-6.408078	3.844847
Eu	3.844847	-6.408078	6.408078
Eu	6.408078	-8.971309	1.281616
O	2.563231	-5.694639	2.563231
O	2.563231	-7.689693	0.568176
O	0.568176	-7.689693	2.563231
O	5.126462	-5.126462	1.995055
O	1.995055	-5.126462	5.126462
O	5.126462	-7.121517	-0.000000
O	4.558286	-7.689693	2.563231
O	2.563231	-7.689693	4.558286
O	2.563231	-9.684748	2.563231
O	5.126462	-5.126462	5.126462
O	7.689693	-7.689693	2.563231
O	8.257870	-5.126462	5.126462
O	5.126462	-5.126462	8.257870
O	5.126462	-8.257870	5.126462
Ru	3.844847	-6.408078	1.281616
Ru	1.281616	-6.408078	3.844847
Ru	1.281616	-8.971309	1.281616
Ru	3.844847	-8.971309	3.844847
Eu	-6.408078	-3.844847	3.844847
Eu	-3.844847	-1.281616	8.971309
Eu	-6.408078	-1.281616	11.534540
Eu	-3.844847	-3.844847	6.408078
O	-7.689693	-0.568176	7.689694
O	-7.689693	-2.563231	5.694639
O	-9.684748	-2.563231	7.689693
O	-5.126462	0.000000	7.121517
O	-8.257870	0.000000	10.252925
O	-5.126462	-1.995055	5.126462
O	-5.694639	-2.563231	7.689693
O	-7.689693	-2.563231	9.684748
O	-7.689693	-4.558286	7.689693
O	-5.126462	0.000000	10.252925
O	-2.563231	-2.563231	7.689693
O	-1.995055	0.000000	10.252925
O	-5.126462	0.000000	13.384332
O	-5.126462	-3.131407	10.252925
Ru	-6.408078	-1.281616	6.408078
Ru	-8.971309	-1.281616	8.971309
Ru	-8.971309	-3.844847	6.408078
Ru	-6.408078	-3.844847	8.971309
Eu	-1.281616	-3.844847	8.971309
Eu	1.281616	-1.281616	14.097771
Eu	-1.281616	-1.281616	16.661003
Eu	1.281616	-3.844847	11.534540
O	-2.563231	-0.568176	12.816156
O	-2.563231	-2.563231	10.821101
O	-4.558286	-2.563231	12.816156
O	0.000000	0.000000	12.247980
O	-3.131407	0.000000	15.379387
O	0.000000	-1.995055	10.252925
O	-0.568176	-2.563231	12.816156
O	-2.563231	-2.563231	14.811211
O	-2.563231	-4.558286	12.816156
O	0.000000	0.000000	15.379387
O	2.563231	-2.563231	12.816156
O	3.131407	0.000000	15.379387
O	0.000000	0.000000	18.510794
O	0.000000	-3.131407	15.379387
Ru	-1.281616	-1.281616	11.534540
Ru	-3.844847	-1.281616	14.097771
Ru	-3.844847	-3.844847	11.534540
Ru	-1.281616	-3.844847	14.097771
Eu	-6.408078	-8.971309	-1.281616
Eu	-3.844847	-6.408078	3.844847
Eu	-6.408078	-6.408078	6.408078
Eu	-3.844847	-8.971309	1.281616
O	-7.689693	-5.694639	2.563231
O	-7.689693	-7.689693	0.568176
O	-9.684748	-7.689693	2.563231
O	-5.126462	-5.126462	1.995055
O	-8.257870	-5.126462	5.126462
O	-5.126462	-7.121517	-0.000000
O	-5.694639	-7.689693	2.563231
O	-7.689693	-7.689693	4.558286
O	-7.689693	-9.684748	2.563231
O	-5.126462	-5.126462	5.126462
O	-2.563231	-7.689693	2.563231
O	-1.995055	-5.126462	5.126462
O	-5.126462	-5.126462	8.257870
O	-5.126462	-8.257870	5.126462
Ru	-6.408078	-6.408078	1.281616
Ru	-8.971309	-6.408078	3.844847
Ru	-8.971309	-8.971309	1.281616
Ru	-6.408078	-8.971309	3.844847
Eu	-1.281616	-8.971309	3.844847
Eu	1.281616	-6.408078	8.971309
Eu	-1.281616	-6.408078	11.534540
Eu	1.281616	-8.971309	6.408078
O	-2.563231	-5.694639	7.689694
O	-2.563231	-7.689693	5.694639
O	-4.558286	-7.689693	7.689693
O	0.000000	-5.126462	7.121517
O	-3.131407	-5.126462	10.252925
O	0.000000	-7.121517	5.126462
O	-0.568176	-7.689693	7.689693
O	-2.563231	-7.689693	9.684748
O	-2.563231	-9.684748	7.689693
O	0.000000	-5.126462	10.252925
O	2.563231	-7.689693	7.689693
O	3.131407	-5.126462	10.252925
O	0.000000	-5.126462	13.384332
O	0.000000	-8.257870	10.252925
Ru	-1.281616	-6.408078	6.408078
Ru	-3.844847	-6.408078	8.971309
Ru	-3.844847	-8.971309	6.408078
Ru	-1.281616	-8.971309	8.971309
