40

In	0.000000	0.000000	0.000000
O	1.977271	1.977271	0.000000
O	1.977271	0.000000	1.977271
O	0.000000	1.977271	1.977271
Pd	1.977271	1.977271	1.977271
In	0.000000	0.000000	3.954536
O	1.977271	1.977271	3.954536
O	1.977271	0.000000	5.931808
O	0.000000	1.977271	5.931808
Pd	1.977271	1.977271	5.931808
In	0.000000	3.954536	0.000000
O	1.977271	5.931808	0.000000
O	1.977271	3.954536	1.977271
O	0.000000	5.931808	1.977271
Pd	1.977271	5.931808	1.977271
In	0.000000	3.954536	3.954536
O	1.977271	5.931808	3.954536
O	1.977271	3.954536	5.931808
O	0.000000	5.931808	5.931808
Pd	1.977271	5.931808	5.931808
In	3.954536	0.000000	0.000000
O	5.931808	1.977271	0.000000
O	5.931808	0.000000	1.977271
O	3.954536	1.977271	1.977271
Pd	5.931808	1.977271	1.977271
In	3.954536	0.000000	3.954536
O	5.931808	1.977271	3.954536
O	5.931808	0.000000	5.931808
O	3.954536	1.977271	5.931808
Pd	5.931808	1.977271	5.931808
In	3.954536	3.954536	0.000000
O	5.931808	5.931808	0.000000
O	5.931808	3.954536	1.977271
O	3.954536	5.931808	1.977271
Pd	5.931808	5.931808	1.977271
In	3.954536	3.954536	3.954536
O	5.931808	5.931808	3.954536
O	5.931808	3.954536	5.931808
O	3.954536	5.931808	5.931808
Pd	5.931808	5.931808	5.931808
