40

In	0.000000	0.000000	0.000000
O	1.994677	1.994677	0.000000
O	1.994677	0.000000	1.994677
O	0.000000	1.994677	1.994677
Pd	1.994677	1.994677	1.994677
In	0.000000	0.000000	3.989354
O	1.994677	1.994677	3.989354
O	1.994677	0.000000	5.984031
O	0.000000	1.994677	5.984031
Pd	1.994677	1.994677	5.984031
In	0.000000	3.989354	0.000000
O	1.994677	5.984031	0.000000
O	1.994677	3.989354	1.994677
O	0.000000	5.984031	1.994677
Pd	1.994677	5.984031	1.994677
In	0.000000	3.989354	3.989354
O	1.994677	5.984031	3.989354
O	1.994677	3.989354	5.984031
O	0.000000	5.984031	5.984031
Pd	1.994677	5.984031	5.984031
In	3.989354	0.000000	0.000000
O	5.984031	1.994677	0.000000
O	5.984031	0.000000	1.994677
O	3.989354	1.994677	1.994677
Pd	5.984031	1.994677	1.994677
In	3.989354	0.000000	3.989354
O	5.984031	1.994677	3.989354
O	5.984031	0.000000	5.984031
O	3.989354	1.994677	5.984031
Pd	5.984031	1.994677	5.984031
In	3.989354	3.989354	0.000000
O	5.984031	5.984031	0.000000
O	5.984031	3.989354	1.994677
O	3.989354	5.984031	1.994677
Pd	5.984031	5.984031	1.994677
In	3.989354	3.989354	3.989354
O	5.984031	5.984031	3.989354
O	5.984031	3.989354	5.984031
O	3.989354	5.984031	5.984031
Pd	5.984031	5.984031	5.984031
