40

Ba	2.315160	2.315160	2.315160
O	0.000000	2.315160	2.315160
O	2.315160	0.000000	2.315160
O	2.315160	2.315160	0.000000
Zn	0.000000	0.000000	0.000000
Ba	2.315160	2.315160	6.945479
O	0.000000	2.315160	6.945479
O	2.315160	0.000000	6.945479
O	2.315160	2.315160	4.630319
Zn	0.000000	0.000000	4.630319
Ba	2.315160	6.945479	2.315160
O	0.000000	6.945479	2.315160
O	2.315160	4.630319	2.315160
O	2.315160	6.945479	0.000000
Zn	0.000000	4.630319	0.000000
Ba	2.315160	6.945479	6.945479
O	0.000000	6.945479	6.945479
O	2.315160	4.630319	6.945479
O	2.315160	6.945479	4.630319
Zn	0.000000	4.630319	4.630319
Ba	6.945479	2.315160	2.315160
O	4.630319	2.315160	2.315160
O	6.945479	0.000000	2.315160
O	6.945479	2.315160	0.000000
Zn	4.630319	0.000000	0.000000
Ba	6.945479	2.315160	6.945479
O	4.630319	2.315160	6.945479
O	6.945479	0.000000	6.945479
O	6.945479	2.315160	4.630319
Zn	4.630319	0.000000	4.630319
Ba	6.945479	6.945479	2.315160
O	4.630319	6.945479	2.315160
O	6.945479	4.630319	2.315160
O	6.945479	6.945479	0.000000
Zn	4.630319	4.630319	0.000000
Ba	6.945479	6.945479	6.945479
O	4.630319	6.945479	6.945479
O	6.945479	4.630319	6.945479
O	6.945479	6.945479	4.630319
Zn	4.630319	4.630319	4.630319
