40

O	0.000000	1.991652	1.991652
O	1.991652	0.000000	1.991652
O	1.991652	1.991652	0.000000
Ru	1.991652	1.991652	1.991652
Te	0.000000	0.000000	0.000000
O	0.000000	1.991652	5.974955
O	1.991652	0.000000	5.974955
O	1.991652	1.991652	3.983303
Ru	1.991652	1.991652	5.974955
Te	0.000000	0.000000	3.983303
O	0.000000	5.974955	1.991652
O	1.991652	3.983303	1.991652
O	1.991652	5.974955	0.000000
Ru	1.991652	5.974955	1.991652
Te	0.000000	3.983303	0.000000
O	0.000000	5.974955	5.974955
O	1.991652	3.983303	5.974955
O	1.991652	5.974955	3.983303
Ru	1.991652	5.974955	5.974955
Te	0.000000	3.983303	3.983303
O	3.983303	1.991652	1.991652
O	5.974955	0.000000	1.991652
O	5.974955	1.991652	0.000000
Ru	5.974955	1.991652	1.991652
Te	3.983303	0.000000	0.000000
O	3.983303	1.991652	5.974955
O	5.974955	0.000000	5.974955
O	5.974955	1.991652	3.983303
Ru	5.974955	1.991652	5.974955
Te	3.983303	0.000000	3.983303
O	3.983303	5.974955	1.991652
O	5.974955	3.983303	1.991652
O	5.974955	5.974955	0.000000
Ru	5.974955	5.974955	1.991652
Te	3.983303	3.983303	0.000000
O	3.983303	5.974955	5.974955
O	5.974955	3.983303	5.974955
O	5.974955	5.974955	3.983303
Ru	5.974955	5.974955	5.974955
Te	3.983303	3.983303	3.983303
