40

O	0.000000	1.992372	1.992372
O	1.992372	0.000000	1.992372
O	1.992372	1.992372	0.000000
Ru	1.992372	1.992372	1.992372
Te	0.000000	0.000000	0.000000
O	0.000000	1.992372	5.977116
O	1.992372	0.000000	5.977116
O	1.992372	1.992372	3.984744
Ru	1.992372	1.992372	5.977116
Te	0.000000	0.000000	3.984744
O	0.000000	5.977116	1.992372
O	1.992372	3.984744	1.992372
O	1.992372	5.977116	0.000000
Ru	1.992372	5.977116	1.992372
Te	0.000000	3.984744	0.000000
O	0.000000	5.977116	5.977116
O	1.992372	3.984744	5.977116
O	1.992372	5.977116	3.984744
Ru	1.992372	5.977116	5.977116
Te	0.000000	3.984744	3.984744
O	3.984744	1.992372	1.992372
O	5.977116	0.000000	1.992372
O	5.977116	1.992372	0.000000
Ru	5.977116	1.992372	1.992372
Te	3.984744	0.000000	0.000000
O	3.984744	1.992372	5.977116
O	5.977116	0.000000	5.977116
O	5.977116	1.992372	3.984744
Ru	5.977116	1.992372	5.977116
Te	3.984744	0.000000	3.984744
O	3.984744	5.977116	1.992372
O	5.977116	3.984744	1.992372
O	5.977116	5.977116	0.000000
Ru	5.977116	5.977116	1.992372
Te	3.984744	3.984744	0.000000
O	3.984744	5.977116	5.977116
O	5.977116	3.984744	5.977116
O	5.977116	5.977116	3.984744
Ru	5.977116	5.977116	5.977116
Te	3.984744	3.984744	3.984744
