40

Be	1.776749	1.776749	1.776749
Cl	0.000000	0.000000	0.000000
O	0.000000	1.776749	1.776749
O	1.776749	0.000000	1.776749
O	1.776749	1.776749	0.000000
Be	1.776749	1.776749	5.330247
Cl	0.000000	0.000000	3.553498
O	0.000000	1.776749	5.330247
O	1.776749	0.000000	5.330247
O	1.776749	1.776749	3.553498
Be	1.776749	5.330247	1.776749
Cl	0.000000	3.553498	0.000000
O	0.000000	5.330247	1.776749
O	1.776749	3.553498	1.776749
O	1.776749	5.330247	0.000000
Be	1.776749	5.330247	5.330247
Cl	0.000000	3.553498	3.553498
O	0.000000	5.330247	5.330247
O	1.776749	3.553498	5.330247
O	1.776749	5.330247	3.553498
Be	5.330247	1.776749	1.776749
Cl	3.553498	0.000000	0.000000
O	3.553498	1.776749	1.776749
O	5.330247	0.000000	1.776749
O	5.330247	1.776749	0.000000
Be	5.330247	1.776749	5.330247
Cl	3.553498	0.000000	3.553498
O	3.553498	1.776749	5.330247
O	5.330247	0.000000	5.330247
O	5.330247	1.776749	3.553498
Be	5.330247	5.330247	1.776749
Cl	3.553498	3.553498	0.000000
O	3.553498	5.330247	1.776749
O	5.330247	3.553498	1.776749
O	5.330247	5.330247	0.000000
Be	5.330247	5.330247	5.330247
Cl	3.553498	3.553498	3.553498
O	3.553498	5.330247	5.330247
O	5.330247	3.553498	5.330247
O	5.330247	5.330247	3.553498
