40

Ag	0.000000	0.000000	0.000000
Mo	1.971286	1.971286	1.971286
O	0.000000	1.971286	1.971286
O	1.971286	0.000000	1.971286
O	1.971286	1.971286	0.000000
Ag	0.000000	0.000000	3.942572
Mo	1.971286	1.971286	5.913859
O	0.000000	1.971286	5.913859
O	1.971286	0.000000	5.913859
O	1.971286	1.971286	3.942572
Ag	0.000000	3.942572	0.000000
Mo	1.971286	5.913859	1.971286
O	0.000000	5.913859	1.971286
O	1.971286	3.942572	1.971286
O	1.971286	5.913859	0.000000
Ag	0.000000	3.942572	3.942572
Mo	1.971286	5.913859	5.913859
O	0.000000	5.913859	5.913859
O	1.971286	3.942572	5.913859
O	1.971286	5.913859	3.942572
Ag	3.942572	0.000000	0.000000
Mo	5.913859	1.971286	1.971286
O	3.942572	1.971286	1.971286
O	5.913859	0.000000	1.971286
O	5.913859	1.971286	0.000000
Ag	3.942572	0.000000	3.942572
Mo	5.913859	1.971286	5.913859
O	3.942572	1.971286	5.913859
O	5.913859	0.000000	5.913859
O	5.913859	1.971286	3.942572
Ag	3.942572	3.942572	0.000000
Mo	5.913859	5.913859	1.971286
O	3.942572	5.913859	1.971286
O	5.913859	3.942572	1.971286
O	5.913859	5.913859	0.000000
Ag	3.942572	3.942572	3.942572
Mo	5.913859	5.913859	5.913859
O	3.942572	5.913859	5.913859
O	5.913859	3.942572	5.913859
O	5.913859	5.913859	3.942572
