40

Cd	0.000000	0.000000	0.000000
O	0.000000	2.079037	2.079037
O	2.079037	0.000000	2.079037
O	2.079037	2.079037	0.000000
Zr	2.079037	2.079037	2.079037
Cd	0.000000	0.000000	4.158075
O	0.000000	2.079037	6.237112
O	2.079037	0.000000	6.237112
O	2.079037	2.079037	4.158075
Zr	2.079037	2.079037	6.237112
Cd	0.000000	4.158075	0.000000
O	0.000000	6.237112	2.079037
O	2.079037	4.158075	2.079037
O	2.079037	6.237112	0.000000
Zr	2.079037	6.237112	2.079037
Cd	0.000000	4.158075	4.158075
O	0.000000	6.237112	6.237112
O	2.079037	4.158075	6.237112
O	2.079037	6.237112	4.158075
Zr	2.079037	6.237112	6.237112
Cd	4.158075	0.000000	0.000000
O	4.158075	2.079037	2.079037
O	6.237112	0.000000	2.079037
O	6.237112	2.079037	0.000000
Zr	6.237112	2.079037	2.079037
Cd	4.158075	0.000000	4.158075
O	4.158075	2.079037	6.237112
O	6.237112	0.000000	6.237112
O	6.237112	2.079037	4.158075
Zr	6.237112	2.079037	6.237112
Cd	4.158075	4.158075	0.000000
O	4.158075	6.237112	2.079037
O	6.237112	4.158075	2.079037
O	6.237112	6.237112	0.000000
Zr	6.237112	6.237112	2.079037
Cd	4.158075	4.158075	4.158075
O	4.158075	6.237112	6.237112
O	6.237112	4.158075	6.237112
O	6.237112	6.237112	4.158075
Zr	6.237112	6.237112	6.237112
