40

Al	1.918959	1.918959	1.918959
O	0.000000	1.918959	1.918959
O	1.918959	0.000000	1.918959
O	1.918959	1.918959	0.000000
Sr	0.000000	0.000000	0.000000
Al	1.918959	1.918959	5.756878
O	0.000000	1.918959	5.756878
O	1.918959	0.000000	5.756878
O	1.918959	1.918959	3.837918
Sr	0.000000	0.000000	3.837918
Al	1.918959	5.756878	1.918959
O	0.000000	5.756878	1.918959
O	1.918959	3.837918	1.918959
O	1.918959	5.756878	0.000000
Sr	0.000000	3.837918	0.000000
Al	1.918959	5.756878	5.756878
O	0.000000	5.756878	5.756878
O	1.918959	3.837918	5.756878
O	1.918959	5.756878	3.837918
Sr	0.000000	3.837918	3.837918
Al	5.756878	1.918959	1.918959
O	3.837918	1.918959	1.918959
O	5.756878	0.000000	1.918959
O	5.756878	1.918959	0.000000
Sr	3.837918	0.000000	0.000000
Al	5.756878	1.918959	5.756878
O	3.837918	1.918959	5.756878
O	5.756878	0.000000	5.756878
O	5.756878	1.918959	3.837918
Sr	3.837918	0.000000	3.837918
Al	5.756878	5.756878	1.918959
O	3.837918	5.756878	1.918959
O	5.756878	3.837918	1.918959
O	5.756878	5.756878	0.000000
Sr	3.837918	3.837918	0.000000
Al	5.756878	5.756878	5.756878
O	3.837918	5.756878	5.756878
O	5.756878	3.837918	5.756878
O	5.756878	5.756878	3.837918
Sr	3.837918	3.837918	3.837918
