112

O	3.525317	-0.982537	-0.982537
O	-0.983335	0.982537	-3.526144
O	0.983335	-0.982537	-3.526144
O	1.270991	1.271803	-1.271803
O	5.491987	0.982537	-0.982537
O	1.270991	3.236878	-3.236878
O	3.237661	3.236878	-1.271803
O	3.237661	1.271803	-3.236878
Pm	0.000000	0.000000	0.000000
Pm	2.254326	-2.254341	-2.254341
Zn	-1.127163	-1.127170	-3.381511
Zn	3.381489	1.127170	-1.127170
Zn	5.635815	-1.127170	-1.127170
Zn	1.127163	1.127170	-3.381511
O	8.033969	3.526144	-0.982537
O	3.525317	5.491218	-3.526144
O	5.491987	3.526144	-3.526144
O	5.779643	5.780484	-1.271803
O	10.000638	5.491218	-0.982537
O	5.779643	7.745559	-3.236878
O	7.746312	7.745559	-1.271803
O	7.746312	5.780484	-3.236878
Pm	4.508652	4.508681	0.000000
Pm	6.762978	2.254341	-2.254341
Zn	3.381489	3.381511	-3.381511
Zn	7.890141	5.635851	-1.127170
Zn	10.144466	3.381511	-1.127170
Zn	5.635815	5.635851	-3.381511
O	-0.983335	-0.982537	-5.491218
O	-5.491987	0.982537	-8.034825
O	-3.525317	-0.982537	-8.034825
O	-3.237661	1.271803	-5.780484
O	0.983335	0.982537	-5.491218
O	-3.237661	3.236878	-7.745559
O	-1.270991	3.236878	-5.780484
O	-1.270991	1.271803	-7.745559
Pm	-4.508652	0.000000	-4.508681
Pm	-2.254326	-2.254341	-6.763022
Zn	-5.635815	-1.127170	-7.890192
Zn	-1.127163	1.127170	-5.635851
Zn	1.127163	-1.127170	-5.635851
Zn	-3.381489	1.127170	-7.890192
O	3.525317	3.526144	-5.491218
O	-0.983335	5.491218	-8.034825
O	0.983335	3.526144	-8.034825
O	1.270991	5.780484	-5.780484
O	5.491987	5.491218	-5.491218
O	1.270991	7.745559	-7.745559
O	3.237661	7.745559	-5.780484
O	3.237661	5.780484	-7.745559
Pm	0.000000	4.508681	-4.508681
Pm	2.254326	2.254341	-6.763022
Zn	-1.127163	3.381511	-7.890192
Zn	3.381489	5.635851	-5.635851
Zn	5.635815	3.381511	-5.635851
Zn	1.127163	5.635851	-7.890192
O	8.033969	-5.491218	-0.982537
O	3.525317	-3.526144	-3.526144
O	5.491987	-5.491218	-3.526144
O	5.779643	-3.236878	-1.271803
O	10.000638	-3.526144	-0.982537
O	5.779643	-1.271803	-3.236878
O	7.746312	-1.271803	-1.271803
O	7.746312	-3.236878	-3.236878
Pm	4.508652	-4.508681	0.000000
Pm	6.762978	-6.763022	-2.254341
Zn	3.381489	-5.635851	-3.381511
Zn	7.890141	-3.381511	-1.127170
Zn	10.144466	-5.635851	-1.127170
Zn	5.635815	-3.381511	-3.381511
O	12.542620	-0.982537	-0.982537
O	8.033969	0.982537	-3.526144
O	10.000638	-0.982537	-3.526144
O	10.288295	1.271803	-1.271803
O	14.509290	0.982537	-0.982537
O	10.288295	3.236878	-3.236878
O	12.254964	3.236878	-1.271803
O	12.254964	1.271803	-3.236878
Pm	9.017303	0.000000	0.000000
Pm	11.271629	-2.254341	-2.254341
Zn	7.890141	-1.127170	-3.381511
Zn	12.398792	1.127170	-1.127170
Zn	14.653118	-1.127170	-1.127170
Zn	10.144466	1.127170	-3.381511
O	3.525317	-5.491218	-5.491218
O	-0.983335	-3.526144	-8.034825
O	0.983335	-5.491218	-8.034825
O	1.270991	-3.236878	-5.780484
O	5.491987	-3.526144	-5.491218
O	1.270991	-1.271803	-7.745559
O	3.237661	-1.271803	-5.780484
O	3.237661	-3.236878	-7.745559
Pm	0.000000	-4.508681	-4.508681
Pm	2.254326	-6.763022	-6.763022
Zn	-1.127163	-5.635851	-7.890192
Zn	3.381489	-3.381511	-5.635851
Zn	5.635815	-5.635851	-5.635851
Zn	1.127163	-3.381511	-7.890192
O	8.033969	-0.982537	-5.491218
O	3.525317	0.982537	-8.034825
O	5.491987	-0.982537	-8.034825
O	5.779643	1.271803	-5.780484
O	10.000638	0.982537	-5.491218
O	5.779643	3.236878	-7.745559
O	7.746312	3.236878	-5.780484
O	7.746312	1.271803	-7.745559
Pm	4.508652	0.000000	-4.508681
Pm	6.762978	-2.254341	-6.763022
Zn	3.381489	-1.127170	-7.890192
Zn	7.890141	1.127170	-5.635851
Zn	10.144466	-1.127170	-5.635851
Zn	5.635815	1.127170	-7.890192
