40

Al	1.826470	1.826470	1.826470
Li_sv	0.000000	0.000000	0.000000
O	1.826470	1.826470	0.000000
O	0.000000	1.826470	1.826470
O	1.826470	0.000000	1.826470
Al	1.826470	1.826470	5.479418
Li_sv	0.000000	0.000000	3.652948
O	1.826470	1.826470	3.652948
O	0.000000	1.826470	5.479418
O	1.826470	0.000000	5.479418
Al	1.826470	5.479418	1.826470
Li_sv	0.000000	3.652948	0.000000
O	1.826470	5.479418	0.000000
O	0.000000	5.479418	1.826470
O	1.826470	3.652948	1.826470
Al	1.826470	5.479418	5.479418
Li_sv	0.000000	3.652948	3.652948
O	1.826470	5.479418	3.652948
O	0.000000	5.479418	5.479418
O	1.826470	3.652948	5.479418
Al	5.479418	1.826470	1.826470
Li_sv	3.652948	0.000000	0.000000
O	5.479418	1.826470	0.000000
O	3.652948	1.826470	1.826470
O	5.479418	0.000000	1.826470
Al	5.479418	1.826470	5.479418
Li_sv	3.652948	0.000000	3.652948
O	5.479418	1.826470	3.652948
O	3.652948	1.826470	5.479418
O	5.479418	0.000000	5.479418
Al	5.479418	5.479418	1.826470
Li_sv	3.652948	3.652948	0.000000
O	5.479418	5.479418	0.000000
O	3.652948	5.479418	1.826470
O	5.479418	3.652948	1.826470
Al	5.479418	5.479418	5.479418
Li_sv	3.652948	3.652948	3.652948
O	5.479418	5.479418	3.652948
O	3.652948	5.479418	5.479418
O	5.479418	3.652948	5.479418
