40

As	0.000000	0.000000	0.000000
Be	1.756594	1.756594	1.756594
O	1.756594	1.756594	0.000000
O	1.756594	0.000000	1.756594
O	0.000000	1.756594	1.756594
As	0.000000	0.000000	3.513187
Be	1.756594	1.756594	5.269781
O	1.756594	1.756594	3.513187
O	1.756594	0.000000	5.269781
O	0.000000	1.756594	5.269781
As	0.000000	3.513187	0.000000
Be	1.756594	5.269781	1.756594
O	1.756594	5.269781	0.000000
O	1.756594	3.513187	1.756594
O	0.000000	5.269781	1.756594
As	0.000000	3.513187	3.513187
Be	1.756594	5.269781	5.269781
O	1.756594	5.269781	3.513187
O	1.756594	3.513187	5.269781
O	0.000000	5.269781	5.269781
As	3.513187	0.000000	0.000000
Be	5.269781	1.756594	1.756594
O	5.269781	1.756594	0.000000
O	5.269781	0.000000	1.756594
O	3.513187	1.756594	1.756594
As	3.513187	0.000000	3.513187
Be	5.269781	1.756594	5.269781
O	5.269781	1.756594	3.513187
O	5.269781	0.000000	5.269781
O	3.513187	1.756594	5.269781
As	3.513187	3.513187	0.000000
Be	5.269781	5.269781	1.756594
O	5.269781	5.269781	0.000000
O	5.269781	3.513187	1.756594
O	3.513187	5.269781	1.756594
As	3.513187	3.513187	3.513187
Be	5.269781	5.269781	5.269781
O	5.269781	5.269781	3.513187
O	5.269781	3.513187	5.269781
O	3.513187	5.269781	5.269781
