40

Ge	1.931516	1.931516	1.931516
O	0.000000	1.931516	1.931516
O	1.931516	0.000000	1.931516
O	1.931516	1.931516	0.000000
Tl	0.000000	0.000000	0.000000
Ge	1.931516	1.931516	5.794549
O	0.000000	1.931516	5.794549
O	1.931516	0.000000	5.794549
O	1.931516	1.931516	3.863033
Tl	0.000000	0.000000	3.863033
Ge	1.931516	5.794549	1.931516
O	0.000000	5.794549	1.931516
O	1.931516	3.863033	1.931516
O	1.931516	5.794549	0.000000
Tl	0.000000	3.863033	0.000000
Ge	1.931516	5.794549	5.794549
O	0.000000	5.794549	5.794549
O	1.931516	3.863033	5.794549
O	1.931516	5.794549	3.863033
Tl	0.000000	3.863033	3.863033
Ge	5.794549	1.931516	1.931516
O	3.863033	1.931516	1.931516
O	5.794549	0.000000	1.931516
O	5.794549	1.931516	0.000000
Tl	3.863033	0.000000	0.000000
Ge	5.794549	1.931516	5.794549
O	3.863033	1.931516	5.794549
O	5.794549	0.000000	5.794549
O	5.794549	1.931516	3.863033
Tl	3.863033	0.000000	3.863033
Ge	5.794549	5.794549	1.931516
O	3.863033	5.794549	1.931516
O	5.794549	3.863033	1.931516
O	5.794549	5.794549	0.000000
Tl	3.863033	3.863033	0.000000
Ge	5.794549	5.794549	5.794549
O	3.863033	5.794549	5.794549
O	5.794549	3.863033	5.794549
O	5.794549	5.794549	3.863033
Tl	3.863033	3.863033	3.863033
