40

O	2.040425	2.040425	0.000000
O	2.040425	0.000000	2.040425
O	0.000000	2.040425	2.040425
Sn	0.000000	0.000000	0.000000
Ta	2.040425	2.040425	2.040425
O	2.040425	2.040425	4.080849
O	2.040425	0.000000	6.121274
O	0.000000	2.040425	6.121274
Sn	0.000000	0.000000	4.080849
Ta	2.040425	2.040425	6.121274
O	2.040425	6.121274	0.000000
O	2.040425	4.080849	2.040425
O	0.000000	6.121274	2.040425
Sn	0.000000	4.080849	0.000000
Ta	2.040425	6.121274	2.040425
O	2.040425	6.121274	4.080849
O	2.040425	4.080849	6.121274
O	0.000000	6.121274	6.121274
Sn	0.000000	4.080849	4.080849
Ta	2.040425	6.121274	6.121274
O	6.121274	2.040425	0.000000
O	6.121274	0.000000	2.040425
O	4.080849	2.040425	2.040425
Sn	4.080849	0.000000	0.000000
Ta	6.121274	2.040425	2.040425
O	6.121274	2.040425	4.080849
O	6.121274	0.000000	6.121274
O	4.080849	2.040425	6.121274
Sn	4.080849	0.000000	4.080849
Ta	6.121274	2.040425	6.121274
O	6.121274	6.121274	0.000000
O	6.121274	4.080849	2.040425
O	4.080849	6.121274	2.040425
Sn	4.080849	4.080849	0.000000
Ta	6.121274	6.121274	2.040425
O	6.121274	6.121274	4.080849
O	6.121274	4.080849	6.121274
O	4.080849	6.121274	6.121274
Sn	4.080849	4.080849	4.080849
Ta	6.121274	6.121274	6.121274
