40

B	1.745303	1.745303	1.745303
O	1.745303	1.745303	0.000000
O	1.745303	0.000000	1.745303
O	0.000000	1.745303	1.745303
Tb	0.000000	0.000000	0.000000
B	1.745303	1.745303	5.235909
O	1.745303	1.745303	3.490606
O	1.745303	0.000000	5.235909
O	0.000000	1.745303	5.235909
Tb	0.000000	0.000000	3.490606
B	1.745303	5.235909	1.745303
O	1.745303	5.235909	0.000000
O	1.745303	3.490606	1.745303
O	0.000000	5.235909	1.745303
Tb	0.000000	3.490606	0.000000
B	1.745303	5.235909	5.235909
O	1.745303	5.235909	3.490606
O	1.745303	3.490606	5.235909
O	0.000000	5.235909	5.235909
Tb	0.000000	3.490606	3.490606
B	5.235909	1.745303	1.745303
O	5.235909	1.745303	0.000000
O	5.235909	0.000000	1.745303
O	3.490606	1.745303	1.745303
Tb	3.490606	0.000000	0.000000
B	5.235909	1.745303	5.235909
O	5.235909	1.745303	3.490606
O	5.235909	0.000000	5.235909
O	3.490606	1.745303	5.235909
Tb	3.490606	0.000000	3.490606
B	5.235909	5.235909	1.745303
O	5.235909	5.235909	0.000000
O	5.235909	3.490606	1.745303
O	3.490606	5.235909	1.745303
Tb	3.490606	3.490606	0.000000
B	5.235909	5.235909	5.235909
O	5.235909	5.235909	3.490606
O	5.235909	3.490606	5.235909
O	3.490606	5.235909	5.235909
Tb	3.490606	3.490606	3.490606
