40

O	0.000000	2.533030	2.533030
O	2.533030	0.000000	2.533030
O	2.533030	2.533030	0.000000
P	0.000000	0.000000	0.000000
Rb	2.533030	2.533030	2.533030
O	0.000000	2.533030	7.599089
O	2.533030	0.000000	7.599089
O	2.533030	2.533030	5.066059
P	0.000000	0.000000	5.066059
Rb	2.533030	2.533030	7.599089
O	0.000000	7.599089	2.533030
O	2.533030	5.066059	2.533030
O	2.533030	7.599089	0.000000
P	0.000000	5.066059	0.000000
Rb	2.533030	7.599089	2.533030
O	0.000000	7.599089	7.599089
O	2.533030	5.066059	7.599089
O	2.533030	7.599089	5.066059
P	0.000000	5.066059	5.066059
Rb	2.533030	7.599089	7.599089
O	5.066059	2.533030	2.533030
O	7.599089	0.000000	2.533030
O	7.599089	2.533030	0.000000
P	5.066059	0.000000	0.000000
Rb	7.599089	2.533030	2.533030
O	5.066059	2.533030	7.599089
O	7.599089	0.000000	7.599089
O	7.599089	2.533030	5.066059
P	5.066059	0.000000	5.066059
Rb	7.599089	2.533030	7.599089
O	5.066059	7.599089	2.533030
O	7.599089	5.066059	2.533030
O	7.599089	7.599089	0.000000
P	5.066059	5.066059	0.000000
Rb	7.599089	7.599089	2.533030
O	5.066059	7.599089	7.599089
O	7.599089	5.066059	7.599089
O	7.599089	7.599089	5.066059
P	5.066059	5.066059	5.066059
Rb	7.599089	7.599089	7.599089
