264

Bi	4.980975	3.305290	1.854906
Bi	6.890992	-0.055111	-1.730796
Bi	3.181179	0.055111	-1.730796
Bi	3.305290	-1.854906	-4.980975
Bi	1.730796	3.181179	-0.055111
Bi	0.055111	1.730796	-3.181179
Bi	5.091197	3.305290	-1.854906
Bi	1.730796	6.890992	0.055111
Bi	3.305290	1.854906	-5.091197
Bi	-1.854906	4.980975	-3.305290
Bi	1.854906	5.091197	-3.305290
Bi	-0.055111	1.730796	-6.890992
O	1.161388	1.161388	1.161388
O	3.148287	3.148287	3.148287
O	1.161388	-1.161388	-1.161388
O	3.148287	-3.148287	-3.148287
O	5.162291	-1.332684	-2.550897
O	-1.161388	1.161388	-1.161388
O	3.703402	2.485189	0.126205
O	6.368770	2.485189	-0.126205
O	2.485189	-0.126205	-3.703402
O	1.887799	1.887799	-1.887799
O	2.550897	5.162291	1.332684
O	4.909881	1.332684	-2.550897
O	-0.126205	3.703402	-2.485189
O	2.550897	4.909881	-1.332684
O	-3.148287	3.148287	-3.148287
O	2.485189	0.126205	-6.368770
O	1.332684	2.550897	-4.909881
O	-1.332684	2.550897	-5.162291
O	3.874698	3.874698	-3.874698
O	0.126205	6.368770	-2.485189
Zn	0.000000	0.000000	0.000000
Bi	-0.055111	8.341376	-3.181179
Bi	1.854906	4.980975	-6.766882
Bi	-1.854906	5.091197	-6.766882
Bi	-1.730796	3.181179	-10.017061
Bi	-3.305290	8.217265	-5.091197
Bi	-4.980975	6.766882	-8.217265
Bi	0.055111	8.341376	-6.890992
Bi	-3.305290	11.927078	-4.980975
Bi	-1.730796	6.890992	-10.127283
Bi	-6.890992	10.017061	-8.341376
Bi	-3.181179	10.127283	-8.341376
Bi	-5.091197	6.766882	-11.927078
O	-3.874698	6.197474	-3.874698
O	-1.887799	8.184373	-1.887799
O	-3.874698	3.874698	-6.197474
O	-1.887799	1.887799	-8.184373
O	0.126205	3.703402	-7.586983
O	-6.197474	6.197474	-6.197474
O	-1.332684	7.521275	-4.909881
O	1.332684	7.521275	-5.162291
O	-2.550897	4.909881	-8.739488
O	-3.148287	6.923885	-6.923885
O	-2.485189	10.198377	-3.703402
O	-0.126205	6.368770	-7.586983
O	-5.162291	8.739488	-7.521275
O	-2.485189	9.945967	-6.368770
O	-8.184373	8.184373	-8.184373
O	-2.550897	5.162291	-11.404856
O	-3.703402	7.586983	-9.945967
O	-6.368770	7.586983	-10.198377
O	-1.161388	8.910784	-8.910784
O	-4.909881	11.404856	-7.521275
Zn	-5.036086	5.036086	-5.036086
Bi	10.017061	-1.730796	-3.181179
Bi	11.927078	-5.091197	-6.766882
Bi	8.217265	-4.980975	-6.766882
Bi	8.341376	-6.890992	-10.017061
Bi	6.766882	-1.854906	-5.091197
Bi	5.091197	-3.305290	-8.217265
Bi	10.127283	-1.730796	-6.890992
Bi	6.766882	1.854906	-4.980975
Bi	8.341376	-3.181179	-10.127283
Bi	3.181179	-0.055111	-8.341376
Bi	6.890992	0.055111	-8.341376
Bi	4.980975	-3.305290	-11.927078
O	6.197474	-3.874698	-3.874698
O	8.184373	-1.887799	-1.887799
O	6.197474	-6.197474	-6.197474
O	8.184373	-8.184373	-8.184373
O	10.198377	-6.368770	-7.586983
O	3.874698	-3.874698	-6.197474
O	8.739488	-2.550897	-4.909881
O	11.404856	-2.550897	-5.162291
O	7.521275	-5.162291	-8.739488
O	6.923885	-3.148287	-6.923885
O	7.586983	0.126205	-3.703402
O	9.945967	-3.703402	-7.586983
O	4.909881	-1.332684	-7.521275
O	7.586983	-0.126205	-6.368770
O	1.887799	-1.887799	-8.184373
O	7.521275	-4.909881	-11.404856
O	6.368770	-2.485189	-9.945967
O	3.703402	-2.485189	-10.198377
O	8.910784	-1.161388	-8.910784
O	5.162291	1.332684	-7.521275
Zn	5.036086	-5.036086	-5.036086
Bi	4.980975	3.305290	-8.217265
Bi	6.890992	-0.055111	-11.802967
Bi	3.181179	0.055111	-11.802967
Bi	3.305290	-1.854906	-15.053147
Bi	1.730796	3.181179	-10.127283
Bi	0.055111	1.730796	-13.253351
Bi	5.091197	3.305290	-11.927078
Bi	1.730796	6.890992	-10.017061
Bi	3.305290	1.854906	-15.163369
Bi	-1.854906	4.980975	-13.377462
Bi	1.854906	5.091197	-13.377462
Bi	-0.055111	1.730796	-16.963164
O	1.161388	1.161388	-8.910784
O	3.148287	3.148287	-6.923885
O	1.161388	-1.161388	-11.233560
O	3.148287	-3.148287	-13.220459
O	5.162291	-1.332684	-12.623068
O	-1.161388	1.161388	-11.233560
O	3.703402	2.485189	-9.945967
O	6.368770	2.485189	-10.198377
O	2.485189	-0.126205	-13.775574
O	1.887799	1.887799	-11.959971
O	2.550897	5.162291	-8.739488
O	4.909881	1.332684	-12.623068
O	-0.126205	3.703402	-12.557361
O	2.550897	4.909881	-11.404856
O	-3.148287	3.148287	-13.220459
O	2.485189	0.126205	-16.440941
O	1.332684	2.550897	-14.982053
O	-1.332684	2.550897	-15.234463
O	3.874698	3.874698	-13.946869
O	0.126205	6.368770	-12.557361
Zn	0.000000	0.000000	-10.072172
Bi	10.017061	8.341376	6.890992
Bi	11.927078	4.980975	3.305290
Bi	8.217265	5.091197	3.305290
Bi	8.341376	3.181179	0.055111
Bi	6.766882	8.217265	4.980975
Bi	5.091197	6.766882	1.854906
Bi	10.127283	8.341376	3.181179
Bi	6.766882	11.927078	5.091197
Bi	8.341376	6.890992	-0.055111
Bi	3.181179	10.017061	1.730796
Bi	6.890992	10.127283	1.730796
Bi	4.980975	6.766882	-1.854906
O	6.197474	6.197474	6.197474
O	8.184373	8.184373	8.184373
O	6.197474	3.874698	3.874698
O	8.184373	1.887799	1.887799
O	10.198377	3.703402	2.485189
O	3.874698	6.197474	3.874698
O	8.739488	7.521275	5.162291
O	11.404856	7.521275	4.909881
O	7.521275	4.909881	1.332684
O	6.923885	6.923885	3.148287
O	7.586983	10.198377	6.368770
O	9.945967	6.368770	2.485189
O	4.909881	8.739488	2.550897
O	7.586983	9.945967	3.703402
O	1.887799	8.184373	1.887799
O	7.521275	5.162291	-1.332684
O	6.368770	7.586983	0.126205
O	3.703402	7.586983	-0.126205
O	8.910784	8.910784	1.161388
O	5.162291	11.404856	2.550897
Zn	5.036086	5.036086	5.036086
Bi	4.980975	13.377462	1.854906
Bi	6.890992	10.017061	-1.730796
Bi	3.181179	10.127283	-1.730796
Bi	3.305290	8.217265	-4.980975
Bi	1.730796	13.253351	-0.055111
Bi	0.055111	11.802967	-3.181179
Bi	5.091197	13.377462	-1.854906
Bi	1.730796	16.963164	0.055111
Bi	3.305290	11.927078	-5.091197
Bi	-1.854906	15.053147	-3.305290
Bi	1.854906	15.163369	-3.305290
Bi	-0.055111	11.802967	-6.890992
O	1.161388	11.233560	1.161388
O	3.148287	13.220459	3.148287
O	1.161388	8.910784	-1.161388
O	3.148287	6.923885	-3.148287
O	5.162291	8.739488	-2.550897
O	-1.161388	11.233560	-1.161388
O	3.703402	12.557361	0.126205
O	6.368770	12.557361	-0.126205
O	2.485189	9.945967	-3.703402
O	1.887799	11.959971	-1.887799
O	2.550897	15.234463	1.332684
O	4.909881	11.404856	-2.550897
O	-0.126205	13.775574	-2.485189
O	2.550897	14.982053	-1.332684
O	-3.148287	13.220459	-3.148287
O	2.485189	10.198377	-6.368770
O	1.332684	12.623068	-4.909881
O	-1.332684	12.623068	-5.162291
O	3.874698	13.946869	-3.874698
O	0.126205	16.440941	-2.485189
Zn	0.000000	10.072172	0.000000
Bi	15.053147	3.305290	1.854906
Bi	16.963164	-0.055111	-1.730796
Bi	13.253351	0.055111	-1.730796
Bi	13.377462	-1.854906	-4.980975
Bi	11.802967	3.181179	-0.055111
Bi	10.127283	1.730796	-3.181179
Bi	15.163369	3.305290	-1.854906
Bi	11.802967	6.890992	0.055111
Bi	13.377462	1.854906	-5.091197
Bi	8.217265	4.980975	-3.305290
Bi	11.927078	5.091197	-3.305290
Bi	10.017061	1.730796	-6.890992
O	11.233560	1.161388	1.161388
O	13.220459	3.148287	3.148287
O	11.233560	-1.161388	-1.161388
O	13.220459	-3.148287	-3.148287
O	15.234463	-1.332684	-2.550897
O	8.910784	1.161388	-1.161388
O	13.775574	2.485189	0.126205
O	16.440941	2.485189	-0.126205
O	12.557361	-0.126205	-3.703402
O	11.959971	1.887799	-1.887799
O	12.623068	5.162291	1.332684
O	14.982053	1.332684	-2.550897
O	9.945967	3.703402	-2.485189
O	12.623068	4.909881	-1.332684
O	6.923885	3.148287	-3.148287
O	12.557361	0.126205	-6.368770
O	11.404856	2.550897	-4.909881
O	8.739488	2.550897	-5.162291
O	13.946869	3.874698	-3.874698
O	10.198377	6.368770	-2.485189
Zn	10.072172	0.000000	0.000000
Bi	10.017061	8.341376	-3.181179
Bi	11.927078	4.980975	-6.766882
Bi	8.217265	5.091197	-6.766882
Bi	8.341376	3.181179	-10.017061
Bi	6.766882	8.217265	-5.091197
Bi	5.091197	6.766882	-8.217265
Bi	10.127283	8.341376	-6.890992
Bi	6.766882	11.927078	-4.980975
Bi	8.341376	6.890992	-10.127283
Bi	3.181179	10.017061	-8.341376
Bi	6.890992	10.127283	-8.341376
Bi	4.980975	6.766882	-11.927078
O	6.197474	6.197474	-3.874698
O	8.184373	8.184373	-1.887799
O	6.197474	3.874698	-6.197474
O	8.184373	1.887799	-8.184373
O	10.198377	3.703402	-7.586983
O	3.874698	6.197474	-6.197474
O	8.739488	7.521275	-4.909881
O	11.404856	7.521275	-5.162291
O	7.521275	4.909881	-8.739488
O	6.923885	6.923885	-6.923885
O	7.586983	10.198377	-3.703402
O	9.945967	6.368770	-7.586983
O	4.909881	8.739488	-7.521275
O	7.586983	9.945967	-6.368770
O	1.887799	8.184373	-8.184373
O	7.521275	5.162291	-11.404856
O	6.368770	7.586983	-9.945967
O	3.703402	7.586983	-10.198377
O	8.910784	8.910784	-8.910784
O	5.162291	11.404856	-7.521275
Zn	5.036086	5.036086	-5.036086
