40

Er	0.000000	0.000000	0.000000
Hg	2.088368	2.088368	2.088368
O	2.088368	2.088368	0.000000
O	2.088368	0.000000	2.088368
O	0.000000	2.088368	2.088368
Er	0.000000	0.000000	4.176741
Hg	2.088368	2.088368	6.265109
O	2.088368	2.088368	4.176741
O	2.088368	0.000000	6.265109
O	0.000000	2.088368	6.265109
Er	0.000000	4.176741	0.000000
Hg	2.088368	6.265109	2.088368
O	2.088368	6.265109	0.000000
O	2.088368	4.176741	2.088368
O	0.000000	6.265109	2.088368
Er	0.000000	4.176741	4.176741
Hg	2.088368	6.265109	6.265109
O	2.088368	6.265109	4.176741
O	2.088368	4.176741	6.265109
O	0.000000	6.265109	6.265109
Er	4.176741	0.000000	0.000000
Hg	6.265109	2.088368	2.088368
O	6.265109	2.088368	0.000000
O	6.265109	0.000000	2.088368
O	4.176741	2.088368	2.088368
Er	4.176741	0.000000	4.176741
Hg	6.265109	2.088368	6.265109
O	6.265109	2.088368	4.176741
O	6.265109	0.000000	6.265109
O	4.176741	2.088368	6.265109
Er	4.176741	4.176741	0.000000
Hg	6.265109	6.265109	2.088368
O	6.265109	6.265109	0.000000
O	6.265109	4.176741	2.088368
O	4.176741	6.265109	2.088368
Er	4.176741	4.176741	4.176741
Hg	6.265109	6.265109	6.265109
O	6.265109	6.265109	4.176741
O	6.265109	4.176741	6.265109
O	4.176741	6.265109	6.265109
