40

Cr	1.863326	1.863326	1.863326
N	0.000000	0.000000	0.000000
O	0.000000	1.863326	1.863326
O	1.863326	0.000000	1.863326
O	1.863326	1.863326	0.000000
Cr	1.863326	1.863326	5.589977
N	0.000000	0.000000	3.726651
O	0.000000	1.863326	5.589977
O	1.863326	0.000000	5.589977
O	1.863326	1.863326	3.726651
Cr	1.863326	5.589977	1.863326
N	0.000000	3.726651	0.000000
O	0.000000	5.589977	1.863326
O	1.863326	3.726651	1.863326
O	1.863326	5.589977	0.000000
Cr	1.863326	5.589977	5.589977
N	0.000000	3.726651	3.726651
O	0.000000	5.589977	5.589977
O	1.863326	3.726651	5.589977
O	1.863326	5.589977	3.726651
Cr	5.589977	1.863326	1.863326
N	3.726651	0.000000	0.000000
O	3.726651	1.863326	1.863326
O	5.589977	0.000000	1.863326
O	5.589977	1.863326	0.000000
Cr	5.589977	1.863326	5.589977
N	3.726651	0.000000	3.726651
O	3.726651	1.863326	5.589977
O	5.589977	0.000000	5.589977
O	5.589977	1.863326	3.726651
Cr	5.589977	5.589977	1.863326
N	3.726651	3.726651	0.000000
O	3.726651	5.589977	1.863326
O	5.589977	3.726651	1.863326
O	5.589977	5.589977	0.000000
Cr	5.589977	5.589977	5.589977
N	3.726651	3.726651	3.726651
O	3.726651	5.589977	5.589977
O	5.589977	3.726651	5.589977
O	5.589977	5.589977	3.726651
