112

Al	-5.151328	-5.151328	-3.090797
Al	-5.151328	-3.090797	-5.151328
Al	-3.090797	-5.151328	-5.151328
Al	-3.090797	-3.090797	-3.090797
Fe	-6.181593	-6.181593	-6.181593
Fe	0.000000	0.000000	0.000000
O	-2.963014	-2.963014	-1.158048
O	-2.963014	-1.158048	-2.963014
O	-1.158048	-2.963014	-2.963014
O	-1.158048	-1.158048	-1.158048
O	-3.218579	-3.218579	-5.023545
O	-3.218579	-5.023545	-3.218579
O	-5.023545	-3.218579	-3.218579
O	-5.023545	-5.023545	-5.023545
Al	-5.151328	-9.272390	-7.211859
Al	-5.151328	-7.211859	-9.272390
Al	-3.090797	-9.272390	-9.272390
Al	-3.090797	-7.211859	-7.211859
Fe	-6.181593	-10.302655	-10.302655
Fe	0.000000	-4.121062	-4.121062
O	-2.963014	-7.084076	-5.279110
O	-2.963014	-5.279110	-7.084076
O	-1.158048	-7.084076	-7.084076
O	-1.158048	-5.279110	-5.279110
O	-3.218579	-7.339642	-9.144607
O	-3.218579	-9.144607	-7.339642
O	-5.023545	-7.339642	-7.339642
O	-5.023545	-9.144607	-9.144607
Al	-9.272390	-5.151328	-7.211859
Al	-9.272390	-3.090797	-9.272390
Al	-7.211859	-5.151328	-9.272390
Al	-7.211859	-3.090797	-7.211859
Fe	-10.302655	-6.181593	-10.302655
Fe	-4.121062	0.000000	-4.121062
O	-7.084076	-2.963014	-5.279110
O	-7.084076	-1.158048	-7.084076
O	-5.279110	-2.963014	-7.084076
O	-5.279110	-1.158048	-5.279110
O	-7.339642	-3.218579	-9.144607
O	-7.339642	-5.023545	-7.339642
O	-9.144607	-3.218579	-7.339642
O	-9.144607	-5.023545	-9.144607
Al	-9.272390	-9.272390	-11.332921
Al	-9.272390	-7.211859	-13.393452
Al	-7.211859	-9.272390	-13.393452
Al	-7.211859	-7.211859	-11.332921
Fe	-10.302655	-10.302655	-14.423717
Fe	-4.121062	-4.121062	-8.242124
O	-7.084076	-7.084076	-9.400173
O	-7.084076	-5.279110	-11.205138
O	-5.279110	-7.084076	-11.205138
O	-5.279110	-5.279110	-9.400173
O	-7.339642	-7.339642	-13.265669
O	-7.339642	-9.144607	-11.460704
O	-9.144607	-7.339642	-11.460704
O	-9.144607	-9.144607	-13.265669
Al	-9.272390	-9.272390	-3.090797
Al	-9.272390	-7.211859	-5.151328
Al	-7.211859	-9.272390	-5.151328
Al	-7.211859	-7.211859	-3.090797
Fe	-10.302655	-10.302655	-6.181593
Fe	-4.121062	-4.121062	0.000000
O	-7.084076	-7.084076	-1.158048
O	-7.084076	-5.279110	-2.963014
O	-5.279110	-7.084076	-2.963014
O	-5.279110	-5.279110	-1.158048
O	-7.339642	-7.339642	-5.023545
O	-7.339642	-9.144607	-3.218579
O	-9.144607	-7.339642	-3.218579
O	-9.144607	-9.144607	-5.023545
Al	-9.272390	-13.393452	-7.211859
Al	-9.272390	-11.332921	-9.272390
Al	-7.211859	-13.393452	-9.272390
Al	-7.211859	-11.332921	-7.211859
Fe	-10.302655	-14.423717	-10.302655
Fe	-4.121062	-8.242124	-4.121062
O	-7.084076	-11.205138	-5.279110
O	-7.084076	-9.400173	-7.084076
O	-5.279110	-11.205138	-7.084076
O	-5.279110	-9.400173	-5.279110
O	-7.339642	-11.460704	-9.144607
O	-7.339642	-13.265669	-7.339642
O	-9.144607	-11.460704	-7.339642
O	-9.144607	-13.265669	-9.144607
Al	-13.393452	-9.272390	-7.211859
Al	-13.393452	-7.211859	-9.272390
Al	-11.332921	-9.272390	-9.272390
Al	-11.332921	-7.211859	-7.211859
Fe	-14.423717	-10.302655	-10.302655
Fe	-8.242124	-4.121062	-4.121062
O	-11.205138	-7.084076	-5.279110
O	-11.205138	-5.279110	-7.084076
O	-9.400173	-7.084076	-7.084076
O	-9.400173	-5.279110	-5.279110
O	-11.460704	-7.339642	-9.144607
O	-11.460704	-9.144607	-7.339642
O	-13.265669	-7.339642	-7.339642
O	-13.265669	-9.144607	-9.144607
Al	-13.393452	-13.393452	-11.332921
Al	-13.393452	-11.332921	-13.393452
Al	-11.332921	-13.393452	-13.393452
Al	-11.332921	-11.332921	-11.332921
Fe	-14.423717	-14.423717	-14.423717
Fe	-8.242124	-8.242124	-8.242124
O	-11.205138	-11.205138	-9.400173
O	-11.205138	-9.400173	-11.205138
O	-9.400173	-11.205138	-11.205138
O	-9.400173	-9.400173	-9.400173
O	-11.460704	-11.460704	-13.265669
O	-11.460704	-13.265669	-11.460704
O	-13.265669	-11.460704	-11.460704
O	-13.265669	-13.265669	-13.265669
