40

Be	1.773615	1.773615	1.773615
In	0.000000	0.000000	0.000000
O	0.000000	1.773615	1.773615
O	1.773615	0.000000	1.773615
O	1.773615	1.773615	0.000000
Be	1.773615	1.773615	5.320845
In	0.000000	0.000000	3.547230
O	0.000000	1.773615	5.320845
O	1.773615	0.000000	5.320845
O	1.773615	1.773615	3.547230
Be	1.773615	5.320845	1.773615
In	0.000000	3.547230	0.000000
O	0.000000	5.320845	1.773615
O	1.773615	3.547230	1.773615
O	1.773615	5.320845	0.000000
Be	1.773615	5.320845	5.320845
In	0.000000	3.547230	3.547230
O	0.000000	5.320845	5.320845
O	1.773615	3.547230	5.320845
O	1.773615	5.320845	3.547230
Be	5.320845	1.773615	1.773615
In	3.547230	0.000000	0.000000
O	3.547230	1.773615	1.773615
O	5.320845	0.000000	1.773615
O	5.320845	1.773615	0.000000
Be	5.320845	1.773615	5.320845
In	3.547230	0.000000	3.547230
O	3.547230	1.773615	5.320845
O	5.320845	0.000000	5.320845
O	5.320845	1.773615	3.547230
Be	5.320845	5.320845	1.773615
In	3.547230	3.547230	0.000000
O	3.547230	5.320845	1.773615
O	5.320845	3.547230	1.773615
O	5.320845	5.320845	0.000000
Be	5.320845	5.320845	5.320845
In	3.547230	3.547230	3.547230
O	3.547230	5.320845	5.320845
O	5.320845	3.547230	5.320845
O	5.320845	5.320845	3.547230
