112

Fe	0.000000	0.000000	0.000000
Fe	2.329835	-2.331746	-2.331746
O	3.442449	-1.213688	-1.213688
O	-1.217220	1.213688	-3.449803
O	1.217220	-1.213688	-3.449803
O	1.112615	1.118057	-1.118057
O	5.876890	1.213688	-1.213688
O	1.112615	3.545434	-3.545434
O	3.547055	3.545434	-1.118057
O	3.547055	1.118057	-3.545434
Tl	-1.164917	-1.165873	-3.497618
Tl	3.494752	1.165873	-1.165873
Tl	5.824587	-1.165873	-1.165873
Tl	1.164917	1.165873	-3.497618
Fe	4.659669	4.663491	0.000000
Fe	6.989504	2.331746	-2.331746
O	8.102119	3.449803	-1.213688
O	3.442449	5.877180	-3.449803
O	5.876890	3.449803	-3.449803
O	5.772284	5.781548	-1.118057
O	10.536559	5.877180	-1.213688
O	5.772284	8.208925	-3.545434
O	8.206724	8.208925	-1.118057
O	8.206724	5.781548	-3.545434
Tl	3.494752	3.497618	-3.497618
Tl	8.154422	5.829364	-1.165873
Tl	10.484256	3.497618	-1.165873
Tl	5.824587	5.829364	-3.497618
Fe	-4.659669	0.000000	-4.663491
Fe	-2.329835	-2.331746	-6.995237
O	-1.217220	-1.213688	-5.877180
O	-5.876890	1.213688	-8.113294
O	-3.442449	-1.213688	-8.113294
O	-3.547055	1.118057	-5.781548
O	1.217220	1.213688	-5.877180
O	-3.547055	3.545434	-8.208925
O	-1.112615	3.545434	-5.781548
O	-1.112615	1.118057	-8.208925
Tl	-5.824587	-1.165873	-8.161110
Tl	-1.164917	1.165873	-5.829364
Tl	1.164917	-1.165873	-5.829364
Tl	-3.494752	1.165873	-8.161110
Fe	0.000000	4.663491	-4.663491
Fe	2.329835	2.331746	-6.995237
O	3.442449	3.449803	-5.877180
O	-1.217220	5.877180	-8.113294
O	1.217220	3.449803	-8.113294
O	1.112615	5.781548	-5.781548
O	5.876890	5.877180	-5.877180
O	1.112615	8.208925	-8.208925
O	3.547055	8.208925	-5.781548
O	3.547055	5.781548	-8.208925
Tl	-1.164917	3.497618	-8.161110
Tl	3.494752	5.829364	-5.829364
Tl	5.824587	3.497618	-5.829364
Tl	1.164917	5.829364	-8.161110
Fe	4.659669	-4.663491	0.000000
Fe	6.989504	-6.995237	-2.331746
O	8.102119	-5.877180	-1.213688
O	3.442449	-3.449803	-3.449803
O	5.876890	-5.877180	-3.449803
O	5.772284	-3.545434	-1.118057
O	10.536559	-3.449803	-1.213688
O	5.772284	-1.118057	-3.545434
O	8.206724	-1.118057	-1.118057
O	8.206724	-3.545434	-3.545434
Tl	3.494752	-5.829364	-3.497618
Tl	8.154422	-3.497618	-1.165873
Tl	10.484256	-5.829364	-1.165873
Tl	5.824587	-3.497618	-3.497618
Fe	9.319339	0.000000	0.000000
Fe	11.649174	-2.331746	-2.331746
O	12.761788	-1.213688	-1.213688
O	8.102119	1.213688	-3.449803
O	10.536559	-1.213688	-3.449803
O	10.431953	1.118057	-1.118057
O	15.196229	1.213688	-1.213688
O	10.431953	3.545434	-3.545434
O	12.866394	3.545434	-1.118057
O	12.866394	1.118057	-3.545434
Tl	8.154422	-1.165873	-3.497618
Tl	12.814091	1.165873	-1.165873
Tl	15.143926	-1.165873	-1.165873
Tl	10.484256	1.165873	-3.497618
Fe	0.000000	-4.663491	-4.663491
Fe	2.329835	-6.995237	-6.995237
O	3.442449	-5.877180	-5.877180
O	-1.217220	-3.449803	-8.113294
O	1.217220	-5.877180	-8.113294
O	1.112615	-3.545434	-5.781548
O	5.876890	-3.449803	-5.877180
O	1.112615	-1.118057	-8.208925
O	3.547055	-1.118057	-5.781548
O	3.547055	-3.545434	-8.208925
Tl	-1.164917	-5.829364	-8.161110
Tl	3.494752	-3.497618	-5.829364
Tl	5.824587	-5.829364	-5.829364
Tl	1.164917	-3.497618	-8.161110
Fe	4.659669	0.000000	-4.663491
Fe	6.989504	-2.331746	-6.995237
O	8.102119	-1.213688	-5.877180
O	3.442449	1.213688	-8.113294
O	5.876890	-1.213688	-8.113294
O	5.772284	1.118057	-5.781548
O	10.536559	1.213688	-5.877180
O	5.772284	3.545434	-8.208925
O	8.206724	3.545434	-5.781548
O	8.206724	1.118057	-8.208925
Tl	3.494752	-1.165873	-8.161110
Tl	8.154422	1.165873	-5.829364
Tl	10.484256	-1.165873	-5.829364
Tl	5.824587	1.165873	-8.161110
