112

Hg	0.000000	0.000000	0.000000
Hg	2.407479	-2.407937	-2.407937
O	-1.066423	1.066083	-3.749782
O	3.748545	-1.066083	-1.066083
O	1.066423	-1.066083	-3.749782
O	1.341066	1.341845	-1.341845
O	5.881382	1.066083	-1.066083
O	1.341066	3.474020	-3.474020
O	3.473902	3.474020	-1.341845
O	3.473902	1.341845	-3.474020
Y	-1.203745	-1.203964	-3.611901
Y	3.611224	1.203964	-1.203964
Y	6.018703	-1.203964	-1.203964
Y	1.203745	1.203964	-3.611901
Hg	4.814965	4.815866	0.000000
Hg	7.222444	2.407929	-2.407937
O	3.748542	5.881949	-3.749782
O	8.563510	3.749784	-1.066083
O	5.881389	3.749784	-3.749782
O	6.156031	6.157711	-1.341845
O	10.696347	5.881949	-1.066083
O	6.156031	8.289886	-3.474020
O	8.288868	8.289886	-1.341845
O	8.288868	6.157711	-3.474020
Y	3.611221	3.611903	-3.611901
Y	8.426189	6.019830	-1.203964
Y	10.833668	3.611903	-1.203964
Y	6.018710	6.019830	-3.611901
Hg	-4.814965	0.000000	-4.815866
Hg	-2.407486	-2.407937	-7.223803
O	-5.881389	1.066083	-8.565648
O	-1.066420	-1.066083	-5.881949
O	-3.748542	-1.066083	-8.565648
O	-3.473900	1.341845	-6.157711
O	1.066416	1.066083	-5.881949
O	-3.473900	3.474020	-8.289886
O	-1.341063	3.474020	-6.157711
O	-1.341063	1.341845	-8.289886
Y	-6.018710	-1.203964	-8.427767
Y	-1.203742	1.203964	-6.019830
Y	1.203737	-1.203964	-6.019830
Y	-3.611221	1.203964	-8.427767
Hg	0.000000	4.815866	-4.815866
Hg	2.407479	2.407929	-7.223803
O	-1.066423	5.881949	-8.565648
O	3.748545	3.749784	-5.881949
O	1.066423	3.749784	-8.565648
O	1.341066	6.157711	-6.157711
O	5.881382	5.881949	-5.881949
O	1.341066	8.289886	-8.289886
O	3.473902	8.289886	-6.157711
O	3.473902	6.157711	-8.289886
Y	-1.203745	3.611903	-8.427767
Y	3.611224	6.019830	-6.019830
Y	6.018703	3.611903	-6.019830
Y	1.203745	6.019830	-8.427767
Hg	4.814965	-4.815866	0.000000
Hg	7.222444	-7.223803	-2.407937
O	3.748542	-3.749784	-3.749782
O	8.563510	-5.881949	-1.066083
O	5.881389	-5.881949	-3.749782
O	6.156031	-3.474022	-1.341845
O	10.696347	-3.749784	-1.066083
O	6.156031	-1.341847	-3.474020
O	8.288868	-1.341847	-1.341845
O	8.288868	-3.474022	-3.474020
Y	3.611221	-6.019830	-3.611901
Y	8.426189	-3.611903	-1.203964
Y	10.833668	-6.019830	-1.203964
Y	6.018710	-3.611903	-3.611901
Hg	9.629931	0.000000	0.000000
Hg	12.037410	-2.407937	-2.407937
O	8.563507	1.066083	-3.749782
O	13.378475	-1.066083	-1.066083
O	10.696354	-1.066083	-3.749782
O	10.970996	1.341845	-1.341845
O	15.511312	1.066083	-1.066083
O	10.970996	3.474020	-3.474020
O	13.103833	3.474020	-1.341845
O	13.103833	1.341845	-3.474020
Y	8.426186	-1.203964	-3.611901
Y	13.241154	1.203964	-1.203964
Y	15.648633	-1.203964	-1.203964
Y	10.833675	1.203964	-3.611901
Hg	0.000000	-4.815866	-4.815866
Hg	2.407479	-7.223803	-7.223803
O	-1.066423	-3.749784	-8.565648
O	3.748545	-5.881949	-5.881949
O	1.066423	-5.881949	-8.565648
O	1.341066	-3.474022	-6.157711
O	5.881382	-3.749784	-5.881949
O	1.341066	-1.341847	-8.289886
O	3.473902	-1.341847	-6.157711
O	3.473902	-3.474022	-8.289886
Y	-1.203745	-6.019830	-8.427767
Y	3.611224	-3.611903	-6.019830
Y	6.018703	-6.019830	-6.019830
Y	1.203745	-3.611903	-8.427767
Hg	4.814965	0.000000	-4.815866
Hg	7.222444	-2.407937	-7.223803
O	3.748542	1.066083	-8.565648
O	8.563510	-1.066083	-5.881949
O	5.881389	-1.066083	-8.565648
O	6.156031	1.341845	-6.157711
O	10.696347	1.066083	-5.881949
O	6.156031	3.474020	-8.289886
O	8.288868	3.474020	-6.157711
O	8.288868	1.341845	-8.289886
Y	3.611221	-1.203964	-8.427767
Y	8.426189	1.203964	-6.019830
Y	10.833668	-1.203964	-6.019830
Y	6.018710	1.203964	-8.427767
