40

Eu	0.000000	0.000000	0.000000
O	1.995610	0.000000	1.995610
O	0.000000	1.995610	1.995610
O	1.995610	1.995610	0.000000
Ta	1.995610	1.995610	1.995610
Eu	0.000000	0.000000	3.991205
O	1.995610	0.000000	5.986815
O	0.000000	1.995610	5.986815
O	1.995610	1.995610	3.991205
Ta	1.995610	1.995610	5.986815
Eu	0.000000	3.991205	0.000000
O	1.995610	3.991205	1.995610
O	0.000000	5.986815	1.995610
O	1.995610	5.986815	0.000000
Ta	1.995610	5.986815	1.995610
Eu	0.000000	3.991205	3.991205
O	1.995610	3.991205	5.986815
O	0.000000	5.986815	5.986815
O	1.995610	5.986815	3.991205
Ta	1.995610	5.986815	5.986815
Eu	3.991205	0.000000	0.000000
O	5.986815	0.000000	1.995610
O	3.991205	1.995610	1.995610
O	5.986815	1.995610	0.000000
Ta	5.986815	1.995610	1.995610
Eu	3.991205	0.000000	3.991205
O	5.986815	0.000000	5.986815
O	3.991205	1.995610	5.986815
O	5.986815	1.995610	3.991205
Ta	5.986815	1.995610	5.986815
Eu	3.991205	3.991205	0.000000
O	5.986815	3.991205	1.995610
O	3.991205	5.986815	1.995610
O	5.986815	5.986815	0.000000
Ta	5.986815	5.986815	1.995610
Eu	3.991205	3.991205	3.991205
O	5.986815	3.991205	5.986815
O	3.991205	5.986815	5.986815
O	5.986815	5.986815	3.991205
Ta	5.986815	5.986815	5.986815
