40

Eu	2.095185	2.095185	2.095185
Ge	0.000000	0.000000	0.000000
O	2.095185	2.095185	0.000000
O	2.095185	0.000000	2.095185
O	0.000000	2.095185	2.095185
Eu	2.095185	2.095185	6.285551
Ge	0.000000	0.000000	4.190366
O	2.095185	2.095185	4.190366
O	2.095185	0.000000	6.285551
O	0.000000	2.095185	6.285551
Eu	2.095185	6.285551	2.095185
Ge	0.000000	4.190366	0.000000
O	2.095185	6.285551	0.000000
O	2.095185	4.190366	2.095185
O	0.000000	6.285551	2.095185
Eu	2.095185	6.285551	6.285551
Ge	0.000000	4.190366	4.190366
O	2.095185	6.285551	4.190366
O	2.095185	4.190366	6.285551
O	0.000000	6.285551	6.285551
Eu	6.285551	2.095185	2.095185
Ge	4.190366	0.000000	0.000000
O	6.285551	2.095185	0.000000
O	6.285551	0.000000	2.095185
O	4.190366	2.095185	2.095185
Eu	6.285551	2.095185	6.285551
Ge	4.190366	0.000000	4.190366
O	6.285551	2.095185	4.190366
O	6.285551	0.000000	6.285551
O	4.190366	2.095185	6.285551
Eu	6.285551	6.285551	2.095185
Ge	4.190366	4.190366	0.000000
O	6.285551	6.285551	0.000000
O	6.285551	4.190366	2.095185
O	4.190366	6.285551	2.095185
Eu	6.285551	6.285551	6.285551
Ge	4.190366	4.190366	4.190366
O	6.285551	6.285551	4.190366
O	6.285551	4.190366	6.285551
O	4.190366	6.285551	6.285551
