112

Al	0.000000	0.000000	0.000000
Al	2.599844	-2.599951	-2.599951
O	3.619966	-1.579506	-1.579506
O	-1.579723	1.579506	-3.620397
O	1.579723	-1.579506	-3.620397
O	1.020122	1.020446	-1.020446
O	6.779411	1.579506	-1.579506
O	1.020122	4.179457	-4.179457
O	4.179567	4.179457	-1.020446
O	4.179567	1.020446	-4.179457
Rb	-1.299922	-1.299976	-3.899927
Rb	3.899766	1.299976	-1.299976
Rb	6.499611	-1.299976	-1.299976
Rb	1.299922	1.299976	-3.899927
Al	5.199689	5.199903	0.000000
Al	7.799533	2.599951	-2.599951
O	8.819655	3.620397	-1.579506
O	3.619966	6.779408	-3.620397
O	6.779411	3.620397	-3.620397
O	6.219810	6.220349	-1.020446
O	11.979100	6.779408	-1.579506
O	6.219810	9.379360	-4.179457
O	9.379256	9.379360	-1.020446
O	9.379256	6.220349	-4.179457
Rb	3.899766	3.899927	-3.899927
Rb	9.099455	6.499878	-1.299976
Rb	11.699299	3.899927	-1.299976
Rb	6.499611	6.499878	-3.899927
Al	-5.199689	0.000000	-5.199903
Al	-2.599844	-2.599951	-7.799854
O	-1.579723	-1.579506	-6.779408
O	-6.779411	1.579506	-8.820300
O	-3.619966	-1.579506	-8.820300
O	-4.179567	1.020446	-6.220349
O	1.579723	1.579506	-6.779408
O	-4.179567	4.179457	-9.379360
O	-1.020122	4.179457	-6.220349
O	-1.020122	1.020446	-9.379360
Rb	-6.499611	-1.299976	-9.099830
Rb	-1.299922	1.299976	-6.499878
Rb	1.299922	-1.299976	-6.499878
Rb	-3.899766	1.299976	-9.099830
Al	0.000000	5.199903	-5.199903
Al	2.599844	2.599951	-7.799854
O	3.619966	3.620397	-6.779408
O	-1.579723	6.779408	-8.820300
O	1.579723	3.620397	-8.820300
O	1.020122	6.220349	-6.220349
O	6.779411	6.779408	-6.779408
O	1.020122	9.379360	-9.379360
O	4.179567	9.379360	-6.220349
O	4.179567	6.220349	-9.379360
Rb	-1.299922	3.899927	-9.099830
Rb	3.899766	6.499878	-6.499878
Rb	6.499611	3.899927	-6.499878
Rb	1.299922	6.499878	-9.099830
Al	5.199689	-5.199903	0.000000
Al	7.799533	-7.799854	-2.599951
O	8.819655	-6.779408	-1.579506
O	3.619966	-3.620397	-3.620397
O	6.779411	-6.779408	-3.620397
O	6.219810	-4.179457	-1.020446
O	11.979100	-3.620397	-1.579506
O	6.219810	-1.020446	-4.179457
O	9.379256	-1.020446	-1.020446
O	9.379256	-4.179457	-4.179457
Rb	3.899766	-6.499878	-3.899927
Rb	9.099455	-3.899927	-1.299976
Rb	11.699299	-6.499878	-1.299976
Rb	6.499611	-3.899927	-3.899927
Al	10.399377	0.000000	0.000000
Al	12.999222	-2.599951	-2.599951
O	14.019343	-1.579506	-1.579506
O	8.819655	1.579506	-3.620397
O	11.979100	-1.579506	-3.620397
O	11.419499	1.020446	-1.020446
O	17.178788	1.579506	-1.579506
O	11.419499	4.179457	-4.179457
O	14.578944	4.179457	-1.020446
O	14.578944	1.020446	-4.179457
Rb	9.099455	-1.299976	-3.899927
Rb	14.299144	1.299976	-1.299976
Rb	16.898988	-1.299976	-1.299976
Rb	11.699299	1.299976	-3.899927
Al	0.000000	-5.199903	-5.199903
Al	2.599844	-7.799854	-7.799854
O	3.619966	-6.779408	-6.779408
O	-1.579723	-3.620397	-8.820300
O	1.579723	-6.779408	-8.820300
O	1.020122	-4.179457	-6.220349
O	6.779411	-3.620397	-6.779408
O	1.020122	-1.020446	-9.379360
O	4.179567	-1.020446	-6.220349
O	4.179567	-4.179457	-9.379360
Rb	-1.299922	-6.499878	-9.099830
Rb	3.899766	-3.899927	-6.499878
Rb	6.499611	-6.499878	-6.499878
Rb	1.299922	-3.899927	-9.099830
Al	5.199689	0.000000	-5.199903
Al	7.799533	-2.599951	-7.799854
O	8.819655	-1.579506	-6.779408
O	3.619966	1.579506	-8.820300
O	6.779411	-1.579506	-8.820300
O	6.219810	1.020446	-6.220349
O	11.979100	1.579506	-6.779408
O	6.219810	4.179457	-9.379360
O	9.379256	4.179457	-6.220349
O	9.379256	1.020446	-9.379360
Rb	3.899766	-1.299976	-9.099830
Rb	9.099455	1.299976	-6.499878
Rb	11.699299	-1.299976	-6.499878
Rb	6.499611	1.299976	-9.099830
