112

Al	0.000000	0.000000	0.000000
Al	2.550708	-2.550889	-2.550889
O	1.014988	1.015310	-1.015310
O	3.565705	-1.535589	-1.535589
O	-1.535720	1.535589	-3.566199
O	1.535720	-1.535589	-3.566199
O	1.014988	4.086478	-4.086478
O	4.086437	4.086478	-1.015310
O	4.086437	1.015310	-4.086478
O	6.637144	1.535589	-1.535589
Rb	-1.275354	-1.275450	-3.826339
Rb	6.376779	-1.275450	-1.275450
Rb	1.275354	1.275450	-3.826339
Rb	3.826071	1.275450	-1.275450
Al	5.101424	5.101781	0.000000
Al	7.652131	2.550892	-2.550889
O	6.116411	6.117091	-1.015310
O	8.667129	3.566192	-1.535589
O	3.565704	6.637370	-3.566199
O	6.637143	3.566192	-3.566199
O	6.116411	9.188259	-4.086478
O	9.187860	9.188259	-1.015310
O	9.187860	6.117091	-4.086478
O	11.738568	6.637370	-1.535589
Rb	3.826070	3.826332	-3.826339
Rb	11.478202	3.826332	-1.275450
Rb	6.376777	6.377231	-3.826339
Rb	8.927495	6.377231	-1.275450
Al	-5.101424	0.000000	-5.101781
Al	-2.550716	-2.550889	-7.652670
O	-4.086436	1.015310	-6.117091
O	-1.535718	-1.535589	-6.637370
O	-6.637143	1.535589	-8.667981
O	-3.565704	-1.535589	-8.667981
O	-4.086436	4.086478	-9.188259
O	-1.014987	4.086478	-6.117091
O	-1.014987	1.015310	-9.188259
O	1.535721	1.535589	-6.637370
Rb	-6.376777	-1.275450	-8.928120
Rb	1.275355	-1.275450	-6.377231
Rb	-3.826070	1.275450	-8.928120
Rb	-1.275352	1.275450	-6.377231
Al	0.000000	5.101781	-5.101781
Al	2.550708	2.550892	-7.652670
O	1.014988	6.117091	-6.117091
O	3.565705	3.566192	-6.637370
O	-1.535720	6.637370	-8.667981
O	1.535720	3.566192	-8.667981
O	1.014988	9.188259	-9.188259
O	4.086437	9.188259	-6.117091
O	4.086437	6.117091	-9.188259
O	6.637144	6.637370	-6.637370
Rb	-1.275354	3.826332	-8.928120
Rb	6.376779	3.826332	-6.377231
Rb	1.275354	6.377231	-8.928120
Rb	3.826071	6.377231	-6.377231
Al	5.101424	-5.101781	0.000000
Al	7.652131	-7.652670	-2.550889
O	6.116411	-4.086471	-1.015310
O	8.667129	-6.637370	-1.535589
O	3.565704	-3.566192	-3.566199
O	6.637143	-6.637370	-3.566199
O	6.116411	-1.015303	-4.086478
O	9.187860	-1.015303	-1.015310
O	9.187860	-4.086471	-4.086478
O	11.738568	-3.566192	-1.535589
Rb	3.826070	-6.377231	-3.826339
Rb	11.478202	-6.377231	-1.275450
Rb	6.376777	-3.826332	-3.826339
Rb	8.927495	-3.826332	-1.275450
Al	10.202847	0.000000	0.000000
Al	12.753555	-2.550889	-2.550889
O	11.217835	1.015310	-1.015310
O	13.768552	-1.535589	-1.535589
O	8.667127	1.535589	-3.566199
O	11.738567	-1.535589	-3.566199
O	11.217835	4.086478	-4.086478
O	14.289284	4.086478	-1.015310
O	14.289284	1.015310	-4.086478
O	16.839992	1.535589	-1.535589
Rb	8.927493	-1.275450	-3.826339
Rb	16.579626	-1.275450	-1.275450
Rb	11.478201	1.275450	-3.826339
Rb	14.028918	1.275450	-1.275450
Al	0.000000	-5.101781	-5.101781
Al	2.550708	-7.652670	-7.652670
O	1.014988	-4.086471	-6.117091
O	3.565705	-6.637370	-6.637370
O	-1.535720	-3.566192	-8.667981
O	1.535720	-6.637370	-8.667981
O	1.014988	-1.015303	-9.188259
O	4.086437	-1.015303	-6.117091
O	4.086437	-4.086471	-9.188259
O	6.637144	-3.566192	-6.637370
Rb	-1.275354	-6.377231	-8.928120
Rb	6.376779	-6.377231	-6.377231
Rb	1.275354	-3.826332	-8.928120
Rb	3.826071	-3.826332	-6.377231
Al	5.101424	0.000000	-5.101781
Al	7.652131	-2.550889	-7.652670
O	6.116411	1.015310	-6.117091
O	8.667129	-1.535589	-6.637370
O	3.565704	1.535589	-8.667981
O	6.637143	-1.535589	-8.667981
O	6.116411	4.086478	-9.188259
O	9.187860	4.086478	-6.117091
O	9.187860	1.015310	-9.188259
O	11.738568	1.535589	-6.637370
Rb	3.826070	-1.275450	-8.928120
Rb	11.478202	-1.275450	-6.377231
Rb	6.376777	1.275450	-8.928120
Rb	8.927495	1.275450	-6.377231
