112

Ce	0.000000	0.000000	0.000000
Ce	2.507806	-2.508193	-2.508193
Eu	-1.253903	-1.254096	-3.762289
Eu	3.761709	1.254096	-1.254096
Eu	6.269515	-1.254096	-1.254096
Eu	1.253903	1.254096	-3.762289
O	3.837419	-1.177726	-1.177726
O	-1.178193	1.177726	-3.838659
O	1.178193	-1.177726	-3.838659
O	1.329613	1.330467	-1.330467
O	6.193804	1.177726	-1.177726
O	1.329613	3.685918	-3.685918
O	3.685999	3.685918	-1.330467
O	3.685999	1.330467	-3.685918
Ce	5.015612	5.016385	0.000000
Ce	7.523418	2.508193	-2.508193
Eu	3.761709	3.762289	-3.762289
Eu	8.777321	6.270482	-1.254096
Eu	11.285126	3.762289	-1.254096
Eu	6.269515	6.270482	-3.762289
O	8.853031	3.838659	-1.177726
O	3.837419	6.194111	-3.838659
O	6.193804	3.838659	-3.838659
O	6.345225	6.346852	-1.330467
O	11.209416	6.194111	-1.177726
O	6.345225	8.702304	-3.685918
O	8.701610	8.702304	-1.330467
O	8.701610	6.346852	-3.685918
Ce	-5.015612	0.000000	-5.016385
Ce	-2.507806	-2.508193	-7.524578
Eu	-6.269515	-1.254096	-8.778674
Eu	-1.253903	1.254096	-6.270482
Eu	1.253903	-1.254096	-6.270482
Eu	-3.761709	1.254096	-8.778674
O	-1.178193	-1.177726	-6.194111
O	-6.193804	1.177726	-8.855045
O	-3.837419	-1.177726	-8.855045
O	-3.685999	1.330467	-6.346852
O	1.178193	1.177726	-6.194111
O	-3.685999	3.685918	-8.702304
O	-1.329613	3.685918	-6.346852
O	-1.329613	1.330467	-8.702304
Ce	0.000000	5.016385	-5.016385
Ce	2.507806	2.508193	-7.524578
Eu	-1.253903	3.762289	-8.778674
Eu	3.761709	6.270482	-6.270482
Eu	6.269515	3.762289	-6.270482
Eu	1.253903	6.270482	-8.778674
O	3.837419	3.838659	-6.194111
O	-1.178193	6.194111	-8.855045
O	1.178193	3.838659	-8.855045
O	1.329613	6.346852	-6.346852
O	6.193804	6.194111	-6.194111
O	1.329613	8.702304	-8.702304
O	3.685999	8.702304	-6.346852
O	3.685999	6.346852	-8.702304
Ce	5.015612	-5.016385	0.000000
Ce	7.523418	-7.524578	-2.508193
Eu	3.761709	-6.270482	-3.762289
Eu	8.777321	-3.762289	-1.254096
Eu	11.285126	-6.270482	-1.254096
Eu	6.269515	-3.762289	-3.762289
O	8.853031	-6.194111	-1.177726
O	3.837419	-3.838659	-3.838659
O	6.193804	-6.194111	-3.838659
O	6.345225	-3.685919	-1.330467
O	11.209416	-3.838659	-1.177726
O	6.345225	-1.330467	-3.685918
O	8.701610	-1.330467	-1.330467
O	8.701610	-3.685919	-3.685918
Ce	10.031224	0.000000	0.000000
Ce	12.539029	-2.508193	-2.508193
Eu	8.777321	-1.254096	-3.762289
Eu	13.792932	1.254096	-1.254096
Eu	16.300738	-1.254096	-1.254096
Eu	11.285126	1.254096	-3.762289
O	13.868643	-1.177726	-1.177726
O	8.853031	1.177726	-3.838659
O	11.209416	-1.177726	-3.838659
O	11.360837	1.330467	-1.330467
O	16.225028	1.177726	-1.177726
O	11.360837	3.685918	-3.685918
O	13.717222	3.685918	-1.330467
O	13.717222	1.330467	-3.685918
Ce	0.000000	-5.016385	-5.016385
Ce	2.507806	-7.524578	-7.524578
Eu	-1.253903	-6.270482	-8.778674
Eu	3.761709	-3.762289	-6.270482
Eu	6.269515	-6.270482	-6.270482
Eu	1.253903	-3.762289	-8.778674
O	3.837419	-6.194111	-6.194111
O	-1.178193	-3.838659	-8.855045
O	1.178193	-6.194111	-8.855045
O	1.329613	-3.685919	-6.346852
O	6.193804	-3.838659	-6.194111
O	1.329613	-1.330467	-8.702304
O	3.685999	-1.330467	-6.346852
O	3.685999	-3.685919	-8.702304
Ce	5.015612	0.000000	-5.016385
Ce	7.523418	-2.508193	-7.524578
Eu	3.761709	-1.254096	-8.778674
Eu	8.777321	1.254096	-6.270482
Eu	11.285126	-1.254096	-6.270482
Eu	6.269515	1.254096	-8.778674
O	8.853031	-1.177726	-6.194111
O	3.837419	1.177726	-8.855045
O	6.193804	-1.177726	-8.855045
O	6.345225	1.330467	-6.346852
O	11.209416	1.177726	-6.194111
O	6.345225	3.685918	-8.702304
O	8.701610	3.685918	-6.346852
O	8.701610	1.330467	-8.702304
