40

In	2.065484	2.065484	2.065484
Np	0.000000	0.000000	0.000000
O	2.065484	2.065484	0.000000
O	2.065484	0.000000	2.065484
O	0.000000	2.065484	2.065484
In	2.065484	2.065484	6.196460
Np	0.000000	0.000000	4.130976
O	2.065484	2.065484	4.130976
O	2.065484	0.000000	6.196460
O	0.000000	2.065484	6.196460
In	2.065484	6.196460	2.065484
Np	0.000000	4.130976	0.000000
O	2.065484	6.196460	0.000000
O	2.065484	4.130976	2.065484
O	0.000000	6.196460	2.065484
In	2.065484	6.196460	6.196460
Np	0.000000	4.130976	4.130976
O	2.065484	6.196460	4.130976
O	2.065484	4.130976	6.196460
O	0.000000	6.196460	6.196460
In	6.196460	2.065484	2.065484
Np	4.130976	0.000000	0.000000
O	6.196460	2.065484	0.000000
O	6.196460	0.000000	2.065484
O	4.130976	2.065484	2.065484
In	6.196460	2.065484	6.196460
Np	4.130976	0.000000	4.130976
O	6.196460	2.065484	4.130976
O	6.196460	0.000000	6.196460
O	4.130976	2.065484	6.196460
In	6.196460	6.196460	2.065484
Np	4.130976	4.130976	0.000000
O	6.196460	6.196460	0.000000
O	6.196460	4.130976	2.065484
O	4.130976	6.196460	2.065484
In	6.196460	6.196460	6.196460
Np	4.130976	4.130976	4.130976
O	6.196460	6.196460	4.130976
O	6.196460	4.130976	6.196460
O	4.130976	6.196460	6.196460
