40

Cu	0.000000	0.000000	0.000000
O	0.000000	1.933128	1.933128
O	1.933128	0.000000	1.933128
O	1.933128	1.933128	0.000000
Os	1.933128	1.933128	1.933128
Cu	0.000000	0.000000	3.866256
O	0.000000	1.933128	5.799383
O	1.933128	0.000000	5.799383
O	1.933128	1.933128	3.866256
Os	1.933128	1.933128	5.799383
Cu	0.000000	3.866256	0.000000
O	0.000000	5.799383	1.933128
O	1.933128	3.866256	1.933128
O	1.933128	5.799383	0.000000
Os	1.933128	5.799383	1.933128
Cu	0.000000	3.866256	3.866256
O	0.000000	5.799383	5.799383
O	1.933128	3.866256	5.799383
O	1.933128	5.799383	3.866256
Os	1.933128	5.799383	5.799383
Cu	3.866256	0.000000	0.000000
O	3.866256	1.933128	1.933128
O	5.799383	0.000000	1.933128
O	5.799383	1.933128	0.000000
Os	5.799383	1.933128	1.933128
Cu	3.866256	0.000000	3.866256
O	3.866256	1.933128	5.799383
O	5.799383	0.000000	5.799383
O	5.799383	1.933128	3.866256
Os	5.799383	1.933128	5.799383
Cu	3.866256	3.866256	0.000000
O	3.866256	5.799383	1.933128
O	5.799383	3.866256	1.933128
O	5.799383	5.799383	0.000000
Os	5.799383	5.799383	1.933128
Cu	3.866256	3.866256	3.866256
O	3.866256	5.799383	5.799383
O	5.799383	3.866256	5.799383
O	5.799383	5.799383	3.866256
Os	5.799383	5.799383	5.799383
