40

La	0.000000	0.000000	0.000000
Mn	1.972185	1.972185	1.972185
O	0.000000	1.972185	1.972185
O	1.972185	1.972185	0.000000
O	1.972185	0.000000	1.972185
La	0.000000	0.000000	3.944370
Mn	1.972185	1.972185	5.916555
O	0.000000	1.972185	5.916555
O	1.972185	1.972185	3.944370
O	1.972185	0.000000	5.916555
La	0.000000	3.944370	0.000000
Mn	1.972185	5.916555	1.972185
O	0.000000	5.916555	1.972185
O	1.972185	5.916555	0.000000
O	1.972185	3.944370	1.972185
La	0.000000	3.944370	3.944370
Mn	1.972185	5.916555	5.916555
O	0.000000	5.916555	5.916555
O	1.972185	5.916555	3.944370
O	1.972185	3.944370	5.916555
La	3.944370	0.000000	0.000000
Mn	5.916555	1.972185	1.972185
O	3.944370	1.972185	1.972185
O	5.916555	1.972185	0.000000
O	5.916555	0.000000	1.972185
La	3.944370	0.000000	3.944370
Mn	5.916555	1.972185	5.916555
O	3.944370	1.972185	5.916555
O	5.916555	1.972185	3.944370
O	5.916555	0.000000	5.916555
La	3.944370	3.944370	0.000000
Mn	5.916555	5.916555	1.972185
O	3.944370	5.916555	1.972185
O	5.916555	5.916555	0.000000
O	5.916555	3.944370	1.972185
La	3.944370	3.944370	3.944370
Mn	5.916555	5.916555	5.916555
O	3.944370	5.916555	5.916555
O	5.916555	5.916555	3.944370
O	5.916555	3.944370	5.916555
