40

Na	0.000000	0.000000	0.000000
O	2.148910	2.148910	0.000000
O	0.000000	2.148910	2.148910
O	2.148910	0.000000	2.148910
Tm	2.148910	2.148910	2.148910
Na	0.000000	0.000000	4.297819
O	2.148910	2.148910	4.297819
O	0.000000	2.148910	6.446729
O	2.148910	0.000000	6.446729
Tm	2.148910	2.148910	6.446729
Na	0.000000	4.297819	0.000000
O	2.148910	6.446729	0.000000
O	0.000000	6.446729	2.148910
O	2.148910	4.297819	2.148910
Tm	2.148910	6.446729	2.148910
Na	0.000000	4.297819	4.297819
O	2.148910	6.446729	4.297819
O	0.000000	6.446729	6.446729
O	2.148910	4.297819	6.446729
Tm	2.148910	6.446729	6.446729
Na	4.297819	0.000000	0.000000
O	6.446729	2.148910	0.000000
O	4.297819	2.148910	2.148910
O	6.446729	0.000000	2.148910
Tm	6.446729	2.148910	2.148910
Na	4.297819	0.000000	4.297819
O	6.446729	2.148910	4.297819
O	4.297819	2.148910	6.446729
O	6.446729	0.000000	6.446729
Tm	6.446729	2.148910	6.446729
Na	4.297819	4.297819	0.000000
O	6.446729	6.446729	0.000000
O	4.297819	6.446729	2.148910
O	6.446729	4.297819	2.148910
Tm	6.446729	6.446729	2.148910
Na	4.297819	4.297819	4.297819
O	6.446729	6.446729	4.297819
O	4.297819	6.446729	6.446729
O	6.446729	4.297819	6.446729
Tm	6.446729	6.446729	6.446729
