40

Be	0.000000	0.000000	0.000000
O	0.000000	1.933541	1.933541
O	1.933541	0.000000	1.933541
O	1.933541	1.933541	0.000000
Se	1.933541	1.933541	1.933541
Be	0.000000	0.000000	3.867081
O	0.000000	1.933541	5.800622
O	1.933541	0.000000	5.800622
O	1.933541	1.933541	3.867081
Se	1.933541	1.933541	5.800622
Be	0.000000	3.867081	0.000000
O	0.000000	5.800622	1.933541
O	1.933541	3.867081	1.933541
O	1.933541	5.800622	0.000000
Se	1.933541	5.800622	1.933541
Be	0.000000	3.867081	3.867081
O	0.000000	5.800622	5.800622
O	1.933541	3.867081	5.800622
O	1.933541	5.800622	3.867081
Se	1.933541	5.800622	5.800622
Be	3.867081	0.000000	0.000000
O	3.867081	1.933541	1.933541
O	5.800622	0.000000	1.933541
O	5.800622	1.933541	0.000000
Se	5.800622	1.933541	1.933541
Be	3.867081	0.000000	3.867081
O	3.867081	1.933541	5.800622
O	5.800622	0.000000	5.800622
O	5.800622	1.933541	3.867081
Se	5.800622	1.933541	5.800622
Be	3.867081	3.867081	0.000000
O	3.867081	5.800622	1.933541
O	5.800622	3.867081	1.933541
O	5.800622	5.800622	0.000000
Se	5.800622	5.800622	1.933541
Be	3.867081	3.867081	3.867081
O	3.867081	5.800622	5.800622
O	5.800622	3.867081	5.800622
O	5.800622	5.800622	3.867081
Se	5.800622	5.800622	5.800622
