40

Fe	1.951378	1.951378	1.951378
O	0.000000	1.951378	1.951378
O	1.951378	0.000000	1.951378
O	1.951378	1.951378	0.000000
Sr	0.000000	0.000000	0.000000
Fe	1.951378	1.951378	5.854134
O	0.000000	1.951378	5.854134
O	1.951378	0.000000	5.854134
O	1.951378	1.951378	3.902756
Sr	0.000000	0.000000	3.902756
Fe	1.951378	5.854134	1.951378
O	0.000000	5.854134	1.951378
O	1.951378	3.902756	1.951378
O	1.951378	5.854134	0.000000
Sr	0.000000	3.902756	0.000000
Fe	1.951378	5.854134	5.854134
O	0.000000	5.854134	5.854134
O	1.951378	3.902756	5.854134
O	1.951378	5.854134	3.902756
Sr	0.000000	3.902756	3.902756
Fe	5.854134	1.951378	1.951378
O	3.902756	1.951378	1.951378
O	5.854134	0.000000	1.951378
O	5.854134	1.951378	0.000000
Sr	3.902756	0.000000	0.000000
Fe	5.854134	1.951378	5.854134
O	3.902756	1.951378	5.854134
O	5.854134	0.000000	5.854134
O	5.854134	1.951378	3.902756
Sr	3.902756	0.000000	3.902756
Fe	5.854134	5.854134	1.951378
O	3.902756	5.854134	1.951378
O	5.854134	3.902756	1.951378
O	5.854134	5.854134	0.000000
Sr	3.902756	3.902756	0.000000
Fe	5.854134	5.854134	5.854134
O	3.902756	5.854134	5.854134
O	5.854134	3.902756	5.854134
O	5.854134	5.854134	3.902756
Sr	3.902756	3.902756	3.902756
