40

Fe	0.000000	0.000000	0.000000
O	0.000000	2.243181	2.243181
O	2.243181	0.000000	2.243181
O	2.243181	2.243181	0.000000
Sr	2.243181	2.243181	2.243181
Fe	0.000000	0.000000	4.486361
O	0.000000	2.243181	6.729542
O	2.243181	0.000000	6.729542
O	2.243181	2.243181	4.486361
Sr	2.243181	2.243181	6.729542
Fe	0.000000	4.486361	0.000000
O	0.000000	6.729542	2.243181
O	2.243181	4.486361	2.243181
O	2.243181	6.729542	0.000000
Sr	2.243181	6.729542	2.243181
Fe	0.000000	4.486361	4.486361
O	0.000000	6.729542	6.729542
O	2.243181	4.486361	6.729542
O	2.243181	6.729542	4.486361
Sr	2.243181	6.729542	6.729542
Fe	4.486361	0.000000	0.000000
O	4.486361	2.243181	2.243181
O	6.729542	0.000000	2.243181
O	6.729542	2.243181	0.000000
Sr	6.729542	2.243181	2.243181
Fe	4.486361	0.000000	4.486361
O	4.486361	2.243181	6.729542
O	6.729542	0.000000	6.729542
O	6.729542	2.243181	4.486361
Sr	6.729542	2.243181	6.729542
Fe	4.486361	4.486361	0.000000
O	4.486361	6.729542	2.243181
O	6.729542	4.486361	2.243181
O	6.729542	6.729542	0.000000
Sr	6.729542	6.729542	2.243181
Fe	4.486361	4.486361	4.486361
O	4.486361	6.729542	6.729542
O	6.729542	4.486361	6.729542
O	6.729542	6.729542	4.486361
Sr	6.729542	6.729542	6.729542
