40

Cl	1.964476	1.964476	1.964476
O	0.000000	1.964476	1.964476
O	1.964476	0.000000	1.964476
O	1.964476	1.964476	0.000000
Tc	0.000000	0.000000	0.000000
Cl	1.964476	1.964476	5.893427
O	0.000000	1.964476	5.893427
O	1.964476	0.000000	5.893427
O	1.964476	1.964476	3.928952
Tc	0.000000	0.000000	3.928952
Cl	1.964476	5.893427	1.964476
O	0.000000	5.893427	1.964476
O	1.964476	3.928952	1.964476
O	1.964476	5.893427	0.000000
Tc	0.000000	3.928952	0.000000
Cl	1.964476	5.893427	5.893427
O	0.000000	5.893427	5.893427
O	1.964476	3.928952	5.893427
O	1.964476	5.893427	3.928952
Tc	0.000000	3.928952	3.928952
Cl	5.893427	1.964476	1.964476
O	3.928952	1.964476	1.964476
O	5.893427	0.000000	1.964476
O	5.893427	1.964476	0.000000
Tc	3.928952	0.000000	0.000000
Cl	5.893427	1.964476	5.893427
O	3.928952	1.964476	5.893427
O	5.893427	0.000000	5.893427
O	5.893427	1.964476	3.928952
Tc	3.928952	0.000000	3.928952
Cl	5.893427	5.893427	1.964476
O	3.928952	5.893427	1.964476
O	5.893427	3.928952	1.964476
O	5.893427	5.893427	0.000000
Tc	3.928952	3.928952	0.000000
Cl	5.893427	5.893427	5.893427
O	3.928952	5.893427	5.893427
O	5.893427	3.928952	5.893427
O	5.893427	5.893427	3.928952
Tc	3.928952	3.928952	3.928952
