176

Bi	0.000000	0.000000	0.000000
Bi	2.576333	2.576333	0.000000
Bi	0.000000	2.576333	2.576333
Bi	2.576333	0.000000	2.576333
O	1.288166	1.288166	1.288166
O	3.864499	3.864499	1.753416
O	-1.288166	0.822917	3.864499
O	1.753416	3.864499	3.864499
O	1.288166	-1.753416	1.288166
O	4.329749	1.288166	1.288166
O	1.288166	1.288166	4.329749
O	3.864499	-1.288166	0.822917
O	0.822917	-1.288166	3.864499
O	3.864499	1.753416	3.864499
O	3.399250	-3.864499	1.288166
O	6.440832	-0.822917	1.288166
O	1.288166	-3.864499	3.399250
O	3.864499	-1.288166	3.864499
Ru	-2.576333	0.000000	2.576333
Ru	2.576333	-2.576333	0.000000
Ru	5.152666	0.000000	0.000000
Ru	0.000000	-2.576333	2.576333
Bi	5.152666	-5.152666	0.000000
Bi	7.728999	-2.576333	0.000000
Bi	5.152666	-2.576333	2.576333
Bi	7.728999	-5.152666	2.576333
O	6.440832	-3.864499	1.288166
O	9.017165	-1.288166	1.753416
O	3.864499	-4.329749	3.864499
O	6.906082	-1.288166	3.864499
O	6.440832	-6.906082	1.288166
O	9.482415	-3.864499	1.288166
O	6.440832	-3.864499	4.329749
O	9.017165	-6.440832	0.822917
O	5.975583	-6.440832	3.864499
O	9.017165	-3.399250	3.864499
O	8.551916	-9.017165	1.288166
O	11.593498	-5.975583	1.288166
O	6.440832	-9.017165	3.399250
O	9.017165	-6.440832	3.864499
Ru	2.576333	-5.152666	2.576333
Ru	7.728999	-7.728999	0.000000
Ru	10.305332	-5.152666	0.000000
Ru	5.152666	-7.728999	2.576333
Bi	-5.152666	0.000000	5.152666
Bi	-2.576333	2.576333	5.152666
Bi	-5.152666	2.576333	7.728999
Bi	-2.576333	0.000000	7.728999
O	-3.864499	1.288166	6.440832
O	-1.288166	3.864499	6.906082
O	-6.440832	0.822917	9.017165
O	-3.399250	3.864499	9.017165
O	-3.864499	-1.753416	6.440832
O	-0.822917	1.288166	6.440832
O	-3.864499	1.288166	9.482415
O	-1.288166	-1.288166	5.975583
O	-4.329749	-1.288166	9.017165
O	-1.288166	1.753416	9.017165
O	-1.753416	-3.864499	6.440832
O	1.288166	-0.822917	6.440832
O	-3.864499	-3.864499	8.551916
O	-1.288166	-1.288166	9.017165
Ru	-7.728999	0.000000	7.728999
Ru	-2.576333	-2.576333	5.152666
Ru	0.000000	0.000000	5.152666
Ru	-5.152666	-2.576333	7.728999
Bi	0.000000	-5.152666	5.152666
Bi	2.576333	-2.576333	5.152666
Bi	0.000000	-2.576333	7.728999
Bi	2.576333	-5.152666	7.728999
O	1.288166	-3.864499	6.440832
O	3.864499	-1.288166	6.906082
O	-1.288166	-4.329749	9.017165
O	1.753416	-1.288166	9.017165
O	1.288166	-6.906082	6.440832
O	4.329749	-3.864499	6.440832
O	1.288166	-3.864499	9.482415
O	3.864499	-6.440832	5.975583
O	0.822917	-6.440832	9.017165
O	3.864499	-3.399250	9.017165
O	3.399250	-9.017165	6.440832
O	6.440832	-5.975583	6.440832
O	1.288166	-9.017165	8.551916
O	3.864499	-6.440832	9.017165
Ru	-2.576333	-5.152666	7.728999
Ru	2.576333	-7.728999	5.152666
Ru	5.152666	-5.152666	5.152666
Ru	0.000000	-7.728999	7.728999
Bi	5.152666	5.152666	0.000000
Bi	7.728999	7.728999	0.000000
Bi	5.152666	7.728999	2.576333
Bi	7.728999	5.152666	2.576333
O	6.440832	6.440832	1.288166
O	9.017165	9.017165	1.753416
O	3.864499	5.975583	3.864499
O	6.906082	9.017165	3.864499
O	6.440832	3.399250	1.288166
O	9.482415	6.440832	1.288166
O	6.440832	6.440832	4.329749
O	9.017165	3.864499	0.822917
O	5.975583	3.864499	3.864499
O	9.017165	6.906082	3.864499
O	8.551916	1.288166	1.288166
O	11.593498	4.329749	1.288166
O	6.440832	1.288166	3.399250
O	9.017165	3.864499	3.864499
Ru	2.576333	5.152666	2.576333
Ru	7.728999	2.576333	0.000000
Ru	10.305332	5.152666	0.000000
Ru	5.152666	2.576333	2.576333
Bi	10.305332	0.000000	0.000000
Bi	12.881665	2.576333	0.000000
Bi	10.305332	2.576333	2.576333
Bi	12.881665	0.000000	2.576333
O	11.593498	1.288166	1.288166
O	14.169831	3.864499	1.753416
O	9.017165	0.822917	3.864499
O	12.058748	3.864499	3.864499
O	11.593498	-1.753416	1.288166
O	14.635081	1.288166	1.288166
O	11.593498	1.288166	4.329749
O	14.169831	-1.288166	0.822917
O	11.128249	-1.288166	3.864499
O	14.169831	1.753416	3.864499
O	13.704582	-3.864499	1.288166
O	16.746164	-0.822917	1.288166
O	11.593498	-3.864499	3.399250
O	14.169831	-1.288166	3.864499
Ru	7.728999	0.000000	2.576333
Ru	12.881665	-2.576333	0.000000
Ru	15.457998	0.000000	0.000000
Ru	10.305332	-2.576333	2.576333
Bi	0.000000	5.152666	5.152666
Bi	2.576333	7.728999	5.152666
Bi	0.000000	7.728999	7.728999
Bi	2.576333	5.152666	7.728999
O	1.288166	6.440832	6.440832
O	3.864499	9.017165	6.906082
O	-1.288166	5.975583	9.017165
O	1.753416	9.017165	9.017165
O	1.288166	3.399250	6.440832
O	4.329749	6.440832	6.440832
O	1.288166	6.440832	9.482415
O	3.864499	3.864499	5.975583
O	0.822917	3.864499	9.017165
O	3.864499	6.906082	9.017165
O	3.399250	1.288166	6.440832
O	6.440832	4.329749	6.440832
O	1.288166	1.288166	8.551916
O	3.864499	3.864499	9.017165
Ru	-2.576333	5.152666	7.728999
Ru	2.576333	2.576333	5.152666
Ru	5.152666	5.152666	5.152666
Ru	0.000000	2.576333	7.728999
Bi	5.152666	0.000000	5.152666
Bi	7.728999	2.576333	5.152666
Bi	5.152666	2.576333	7.728999
Bi	7.728999	0.000000	7.728999
O	6.440832	1.288166	6.440832
O	9.017165	3.864499	6.906082
O	3.864499	0.822917	9.017165
O	6.906082	3.864499	9.017165
O	6.440832	-1.753416	6.440832
O	9.482415	1.288166	6.440832
O	6.440832	1.288166	9.482415
O	9.017165	-1.288166	5.975583
O	5.975583	-1.288166	9.017165
O	9.017165	1.753416	9.017165
O	8.551916	-3.864499	6.440832
O	11.593498	-0.822917	6.440832
O	6.440832	-3.864499	8.551916
O	9.017165	-1.288166	9.017165
Ru	2.576333	0.000000	7.728999
Ru	7.728999	-2.576333	5.152666
Ru	10.305332	0.000000	5.152666
Ru	5.152666	-2.576333	7.728999
