40

Mn	1.867397	1.867397	1.867397
O	0.000000	1.867397	1.867397
O	1.867397	0.000000	1.867397
O	1.867397	1.867397	0.000000
Zn	0.000000	0.000000	0.000000
Mn	1.867397	1.867397	5.602192
O	0.000000	1.867397	5.602192
O	1.867397	0.000000	5.602192
O	1.867397	1.867397	3.734795
Zn	0.000000	0.000000	3.734795
Mn	1.867397	5.602192	1.867397
O	0.000000	5.602192	1.867397
O	1.867397	3.734795	1.867397
O	1.867397	5.602192	0.000000
Zn	0.000000	3.734795	0.000000
Mn	1.867397	5.602192	5.602192
O	0.000000	5.602192	5.602192
O	1.867397	3.734795	5.602192
O	1.867397	5.602192	3.734795
Zn	0.000000	3.734795	3.734795
Mn	5.602192	1.867397	1.867397
O	3.734795	1.867397	1.867397
O	5.602192	0.000000	1.867397
O	5.602192	1.867397	0.000000
Zn	3.734795	0.000000	0.000000
Mn	5.602192	1.867397	5.602192
O	3.734795	1.867397	5.602192
O	5.602192	0.000000	5.602192
O	5.602192	1.867397	3.734795
Zn	3.734795	0.000000	3.734795
Mn	5.602192	5.602192	1.867397
O	3.734795	5.602192	1.867397
O	5.602192	3.734795	1.867397
O	5.602192	5.602192	0.000000
Zn	3.734795	3.734795	0.000000
Mn	5.602192	5.602192	5.602192
O	3.734795	5.602192	5.602192
O	5.602192	3.734795	5.602192
O	5.602192	5.602192	3.734795
Zn	3.734795	3.734795	3.734795
