40

Er	2.097117	2.097117	2.097117
O	2.097117	2.097117	0.000000
O	0.000000	2.097117	2.097117
O	2.097117	0.000000	2.097117
W	0.000000	0.000000	0.000000
Er	2.097117	2.097117	6.291361
O	2.097117	2.097117	4.194243
O	0.000000	2.097117	6.291361
O	2.097117	0.000000	6.291361
W	0.000000	0.000000	4.194243
Er	2.097117	6.291361	2.097117
O	2.097117	6.291361	0.000000
O	0.000000	6.291361	2.097117
O	2.097117	4.194243	2.097117
W	0.000000	4.194243	0.000000
Er	2.097117	6.291361	6.291361
O	2.097117	6.291361	4.194243
O	0.000000	6.291361	6.291361
O	2.097117	4.194243	6.291361
W	0.000000	4.194243	4.194243
Er	6.291361	2.097117	2.097117
O	6.291361	2.097117	0.000000
O	4.194243	2.097117	2.097117
O	6.291361	0.000000	2.097117
W	4.194243	0.000000	0.000000
Er	6.291361	2.097117	6.291361
O	6.291361	2.097117	4.194243
O	4.194243	2.097117	6.291361
O	6.291361	0.000000	6.291361
W	4.194243	0.000000	4.194243
Er	6.291361	6.291361	2.097117
O	6.291361	6.291361	0.000000
O	4.194243	6.291361	2.097117
O	6.291361	4.194243	2.097117
W	4.194243	4.194243	0.000000
Er	6.291361	6.291361	6.291361
O	6.291361	6.291361	4.194243
O	4.194243	6.291361	6.291361
O	6.291361	4.194243	6.291361
W	4.194243	4.194243	4.194243
