112

La	0.000000	0.000000	0.000000
La	2.404759	-2.405427	-2.405427
Lu	-1.202379	-1.202714	-3.608141
Lu	3.607138	1.202714	-1.202714
Lu	6.011897	-1.202714	-1.202714
Lu	1.202379	1.202714	-3.608141
O	3.763172	-1.046045	-1.046045
O	-1.046346	1.046045	-3.764810
O	1.046346	-1.046045	-3.764810
O	1.358413	1.359382	-1.359382
O	5.855864	1.046045	-1.046045
O	1.358413	3.451472	-3.451472
O	3.451105	3.451472	-1.359382
O	3.451105	1.359382	-3.451472
La	4.809518	4.810855	0.000000
La	7.214276	2.405427	-2.405427
Lu	3.607138	3.608141	-3.608141
Lu	8.416656	6.013568	-1.202714
Lu	10.821415	3.608141	-1.202714
Lu	6.011897	6.013568	-3.608141
O	8.572689	3.764810	-1.046045
O	3.763172	5.856900	-3.764810
O	5.855864	3.764810	-3.764810
O	6.167931	6.170237	-1.359382
O	10.665381	5.856900	-1.046045
O	6.167931	8.262327	-3.451472
O	8.260622	8.262327	-1.359382
O	8.260622	6.170237	-3.451472
La	-4.809518	0.000000	-4.810855
La	-2.404759	-2.405427	-7.216282
Lu	-6.011897	-1.202714	-8.418996
Lu	-1.202379	1.202714	-6.013568
Lu	1.202379	-1.202714	-6.013568
Lu	-3.607138	1.202714	-8.418996
O	-1.046346	-1.046045	-5.856900
O	-5.855864	1.046045	-8.575665
O	-3.763172	-1.046045	-8.575665
O	-3.451105	1.359382	-6.170237
O	1.046346	1.046045	-5.856900
O	-3.451105	3.451472	-8.262327
O	-1.358413	3.451472	-6.170237
O	-1.358413	1.359382	-8.262327
La	0.000000	4.810855	-4.810855
La	2.404759	2.405427	-7.216282
Lu	-1.202379	3.608141	-8.418996
Lu	3.607138	6.013568	-6.013568
Lu	6.011897	3.608141	-6.013568
Lu	1.202379	6.013568	-8.418996
O	3.763172	3.764810	-5.856900
O	-1.046346	5.856900	-8.575665
O	1.046346	3.764810	-8.575665
O	1.358413	6.170237	-6.170237
O	5.855864	5.856900	-5.856900
O	1.358413	8.262327	-8.262327
O	3.451105	8.262327	-6.170237
O	3.451105	6.170237	-8.262327
La	4.809518	-4.810855	0.000000
La	7.214276	-7.216282	-2.405427
Lu	3.607138	-6.013568	-3.608141
Lu	8.416656	-3.608141	-1.202714
Lu	10.821415	-6.013568	-1.202714
Lu	6.011897	-3.608141	-3.608141
O	8.572689	-5.856900	-1.046045
O	3.763172	-3.764810	-3.764810
O	5.855864	-5.856900	-3.764810
O	6.167931	-3.451472	-1.359382
O	10.665381	-3.764810	-1.046045
O	6.167931	-1.359382	-3.451472
O	8.260622	-1.359382	-1.359382
O	8.260622	-3.451472	-3.451472
La	9.619035	0.000000	0.000000
La	12.023794	-2.405427	-2.405427
Lu	8.416656	-1.202714	-3.608141
Lu	13.226174	1.202714	-1.202714
Lu	15.630932	-1.202714	-1.202714
Lu	10.821415	1.202714	-3.608141
O	13.382207	-1.046045	-1.046045
O	8.572689	1.046045	-3.764810
O	10.665381	-1.046045	-3.764810
O	10.977448	1.359382	-1.359382
O	15.474899	1.046045	-1.046045
O	10.977448	3.451472	-3.451472
O	13.070140	3.451472	-1.359382
O	13.070140	1.359382	-3.451472
La	0.000000	-4.810855	-4.810855
La	2.404759	-7.216282	-7.216282
Lu	-1.202379	-6.013568	-8.418996
Lu	3.607138	-3.608141	-6.013568
Lu	6.011897	-6.013568	-6.013568
Lu	1.202379	-3.608141	-8.418996
O	3.763172	-5.856900	-5.856900
O	-1.046346	-3.764810	-8.575665
O	1.046346	-5.856900	-8.575665
O	1.358413	-3.451472	-6.170237
O	5.855864	-3.764810	-5.856900
O	1.358413	-1.359382	-8.262327
O	3.451105	-1.359382	-6.170237
O	3.451105	-3.451472	-8.262327
La	4.809518	0.000000	-4.810855
La	7.214276	-2.405427	-7.216282
Lu	3.607138	-1.202714	-8.418996
Lu	8.416656	1.202714	-6.013568
Lu	10.821415	-1.202714	-6.013568
Lu	6.011897	1.202714	-8.418996
O	8.572689	-1.046045	-5.856900
O	3.763172	1.046045	-8.575665
O	5.855864	-1.046045	-8.575665
O	6.167931	1.359382	-6.170237
O	10.665381	1.046045	-5.856900
O	6.167931	3.451472	-8.262327
O	8.260622	3.451472	-6.170237
O	8.260622	1.359382	-8.262327
