40

Al	1.831452	1.831452	1.831452
C	0.000000	0.000000	0.000000
O	0.000000	1.831452	1.831452
O	1.831452	0.000000	1.831452
O	1.831452	1.831452	0.000000
Al	1.831452	1.831452	5.494356
C	0.000000	0.000000	3.662904
O	0.000000	1.831452	5.494356
O	1.831452	0.000000	5.494356
O	1.831452	1.831452	3.662904
Al	1.831452	5.494356	1.831452
C	0.000000	3.662904	0.000000
O	0.000000	5.494356	1.831452
O	1.831452	3.662904	1.831452
O	1.831452	5.494356	0.000000
Al	1.831452	5.494356	5.494356
C	0.000000	3.662904	3.662904
O	0.000000	5.494356	5.494356
O	1.831452	3.662904	5.494356
O	1.831452	5.494356	3.662904
Al	5.494356	1.831452	1.831452
C	3.662904	0.000000	0.000000
O	3.662904	1.831452	1.831452
O	5.494356	0.000000	1.831452
O	5.494356	1.831452	0.000000
Al	5.494356	1.831452	5.494356
C	3.662904	0.000000	3.662904
O	3.662904	1.831452	5.494356
O	5.494356	0.000000	5.494356
O	5.494356	1.831452	3.662904
Al	5.494356	5.494356	1.831452
C	3.662904	3.662904	0.000000
O	3.662904	5.494356	1.831452
O	5.494356	3.662904	1.831452
O	5.494356	5.494356	0.000000
Al	5.494356	5.494356	5.494356
C	3.662904	3.662904	3.662904
O	3.662904	5.494356	5.494356
O	5.494356	3.662904	5.494356
O	5.494356	5.494356	3.662904
