112

Eu	0.000000	0.000000	0.000000
Eu	2.402356	-2.402893	-2.402893
Ho	-1.201178	-1.201452	-3.604345
Ho	1.201178	1.201452	-3.604345
Ho	6.005890	-1.201452	-1.201452
Ho	3.603534	1.201452	-1.201452
O	3.742851	-1.061578	-1.061578
O	-1.061851	1.061578	-3.744219
O	1.061851	-1.061578	-3.744219
O	1.340495	1.341325	-1.341325
O	5.866564	1.061578	-1.061578
O	1.340495	3.464471	-3.464471
O	3.464207	1.341325	-3.464471
O	3.464207	3.464471	-1.341325
Eu	4.804708	4.805794	0.000000
Eu	7.207064	2.402901	-2.402893
Ho	3.603530	3.604342	-3.604345
Ho	6.005886	6.007245	-3.604345
Ho	10.810599	3.604342	-1.201452
Ho	8.408243	6.007245	-1.201452
O	8.547559	3.744216	-1.061578
O	3.742857	5.867371	-3.744219
O	5.866560	3.744216	-3.744219
O	6.145203	6.147119	-1.341325
O	10.671272	5.867371	-1.061578
O	6.145203	8.270265	-3.464471
O	8.268916	6.147119	-3.464471
O	8.268916	8.270265	-1.341325
Eu	-4.804708	0.000000	-4.805794
Eu	-2.402352	-2.402893	-7.208687
Ho	-6.005886	-1.201452	-8.410139
Ho	-3.603530	1.201452	-8.410139
Ho	1.201182	-1.201452	-6.007245
Ho	-1.201174	1.201452	-6.007245
O	-1.061858	-1.061578	-5.867371
O	-5.866560	1.061578	-8.550012
O	-3.742857	-1.061578	-8.550012
O	-3.464214	1.341325	-6.147119
O	1.061855	1.061578	-5.867371
O	-3.464214	3.464471	-8.270265
O	-1.340501	1.341325	-8.270265
O	-1.340501	3.464471	-6.147119
Eu	0.000000	4.805794	-4.805794
Eu	2.402356	2.402901	-7.208687
Ho	-1.201178	3.604342	-8.410139
Ho	1.201178	6.007245	-8.410139
Ho	6.005890	3.604342	-6.007245
Ho	3.603534	6.007245	-6.007245
O	3.742851	3.744216	-5.867371
O	-1.061851	5.867371	-8.550012
O	1.061851	3.744216	-8.550012
O	1.340495	6.147119	-6.147119
O	5.866564	5.867371	-5.867371
O	1.340495	8.270265	-8.270265
O	3.464207	6.147119	-8.270265
O	3.464207	8.270265	-6.147119
Eu	4.804708	-4.805794	0.000000
Eu	7.207064	-7.208687	-2.402893
Ho	3.603530	-6.007245	-3.604345
Ho	6.005886	-3.604342	-3.604345
Ho	10.810599	-6.007245	-1.201452
Ho	8.408243	-3.604342	-1.201452
O	8.547559	-5.867371	-1.061578
O	3.742857	-3.744216	-3.744219
O	5.866560	-5.867371	-3.744219
O	6.145203	-3.464468	-1.341325
O	10.671272	-3.744216	-1.061578
O	6.145203	-1.341323	-3.464471
O	8.268916	-3.464468	-3.464471
O	8.268916	-1.341323	-1.341325
Eu	9.609417	0.000000	0.000000
Eu	12.011773	-2.402893	-2.402893
Ho	8.408239	-1.201452	-3.604345
Ho	10.810595	1.201452	-3.604345
Ho	15.615307	-1.201452	-1.201452
Ho	13.212951	1.201452	-1.201452
O	13.352268	-1.061578	-1.061578
O	8.547565	1.061578	-3.744219
O	10.671268	-1.061578	-3.744219
O	10.949912	1.341325	-1.341325
O	15.475980	1.061578	-1.061578
O	10.949912	3.464471	-3.464471
O	13.073624	1.341325	-3.464471
O	13.073624	3.464471	-1.341325
Eu	0.000000	-4.805794	-4.805794
Eu	2.402356	-7.208687	-7.208687
Ho	-1.201178	-6.007245	-8.410139
Ho	1.201178	-3.604342	-8.410139
Ho	6.005890	-6.007245	-6.007245
Ho	3.603534	-3.604342	-6.007245
O	3.742851	-5.867371	-5.867371
O	-1.061851	-3.744216	-8.550012
O	1.061851	-5.867371	-8.550012
O	1.340495	-3.464468	-6.147119
O	5.866564	-3.744216	-5.867371
O	1.340495	-1.341323	-8.270265
O	3.464207	-3.464468	-8.270265
O	3.464207	-1.341323	-6.147119
Eu	4.804708	0.000000	-4.805794
Eu	7.207064	-2.402893	-7.208687
Ho	3.603530	-1.201452	-8.410139
Ho	6.005886	1.201452	-8.410139
Ho	10.810599	-1.201452	-6.007245
Ho	8.408243	1.201452	-6.007245
O	8.547559	-1.061578	-5.867371
O	3.742857	1.061578	-8.550012
O	5.866560	-1.061578	-8.550012
O	6.145203	1.341325	-6.147119
O	10.671272	1.061578	-5.867371
O	6.145203	3.464471	-8.270265
O	8.268916	1.341325	-8.270265
O	8.268916	3.464471	-6.147119
