40

N	1.798033	1.798033	1.798033
O	0.000000	1.798033	1.798033
O	1.798033	0.000000	1.798033
O	1.798033	1.798033	0.000000
Ru	0.000000	0.000000	0.000000
N	1.798033	1.798033	5.394098
O	0.000000	1.798033	5.394098
O	1.798033	0.000000	5.394098
O	1.798033	1.798033	3.596065
Ru	0.000000	0.000000	3.596065
N	1.798033	5.394098	1.798033
O	0.000000	5.394098	1.798033
O	1.798033	3.596065	1.798033
O	1.798033	5.394098	0.000000
Ru	0.000000	3.596065	0.000000
N	1.798033	5.394098	5.394098
O	0.000000	5.394098	5.394098
O	1.798033	3.596065	5.394098
O	1.798033	5.394098	3.596065
Ru	0.000000	3.596065	3.596065
N	5.394098	1.798033	1.798033
O	3.596065	1.798033	1.798033
O	5.394098	0.000000	1.798033
O	5.394098	1.798033	0.000000
Ru	3.596065	0.000000	0.000000
N	5.394098	1.798033	5.394098
O	3.596065	1.798033	5.394098
O	5.394098	0.000000	5.394098
O	5.394098	1.798033	3.596065
Ru	3.596065	0.000000	3.596065
N	5.394098	5.394098	1.798033
O	3.596065	5.394098	1.798033
O	5.394098	3.596065	1.798033
O	5.394098	5.394098	0.000000
Ru	3.596065	3.596065	0.000000
N	5.394098	5.394098	5.394098
O	3.596065	5.394098	5.394098
O	5.394098	3.596065	5.394098
O	5.394098	5.394098	3.596065
Ru	3.596065	3.596065	3.596065
