40

Co	1.962115	1.962115	1.962115
O	1.962115	1.962115	0.000000
O	1.962115	0.000000	1.962115
O	0.000000	1.962115	1.962115
Rb	0.000000	0.000000	0.000000
Co	1.962115	1.962115	5.886339
O	1.962115	1.962115	3.924224
O	1.962115	0.000000	5.886339
O	0.000000	1.962115	5.886339
Rb	0.000000	0.000000	3.924224
Co	1.962115	5.886339	1.962115
O	1.962115	5.886339	0.000000
O	1.962115	3.924224	1.962115
O	0.000000	5.886339	1.962115
Rb	0.000000	3.924224	0.000000
Co	1.962115	5.886339	5.886339
O	1.962115	5.886339	3.924224
O	1.962115	3.924224	5.886339
O	0.000000	5.886339	5.886339
Rb	0.000000	3.924224	3.924224
Co	5.886339	1.962115	1.962115
O	5.886339	1.962115	0.000000
O	5.886339	0.000000	1.962115
O	3.924224	1.962115	1.962115
Rb	3.924224	0.000000	0.000000
Co	5.886339	1.962115	5.886339
O	5.886339	1.962115	3.924224
O	5.886339	0.000000	5.886339
O	3.924224	1.962115	5.886339
Rb	3.924224	0.000000	3.924224
Co	5.886339	5.886339	1.962115
O	5.886339	5.886339	0.000000
O	5.886339	3.924224	1.962115
O	3.924224	5.886339	1.962115
Rb	3.924224	3.924224	0.000000
Co	5.886339	5.886339	5.886339
O	5.886339	5.886339	3.924224
O	5.886339	3.924224	5.886339
O	3.924224	5.886339	5.886339
Rb	3.924224	3.924224	3.924224
