112

Ac	0.000000	0.000000	0.000000
Ac	2.308838	-2.308822	-2.308822
O	3.638986	-0.977793	-0.977793
O	-0.978690	0.977793	-3.639851
O	0.978690	-0.977793	-3.639851
O	1.330148	1.331029	-1.331029
O	5.596366	0.977793	-0.977793
O	1.330148	3.286615	-3.286615
O	3.287528	3.286615	-1.331029
O	3.287528	1.331029	-3.286615
Zn	-1.154419	-1.154411	-3.463233
Zn	3.463257	1.154411	-1.154411
Zn	5.772095	-1.154411	-1.154411
Zn	1.154419	1.154411	-3.463233
Ac	4.617676	4.617644	0.000000
Ac	6.926514	2.308822	-2.308822
O	8.256662	3.639851	-0.977793
O	3.638986	5.595437	-3.639851
O	5.596366	3.639851	-3.639851
O	5.947824	5.948673	-1.331029
O	10.214042	5.595437	-0.977793
O	5.947824	7.904259	-3.286615
O	7.905204	7.904259	-1.331029
O	7.905204	5.948673	-3.286615
Zn	3.463257	3.463233	-3.463233
Zn	8.080933	5.772055	-1.154411
Zn	10.389771	3.463233	-1.154411
Zn	5.772095	5.772055	-3.463233
Ac	-4.617676	0.000000	-4.617644
Ac	-2.308838	-2.308822	-6.926466
O	-0.978690	-0.977793	-5.595437
O	-5.596366	0.977793	-8.257495
O	-3.638986	-0.977793	-8.257495
O	-3.287528	1.331029	-5.948673
O	0.978690	0.977793	-5.595437
O	-3.287528	3.286615	-7.904259
O	-1.330148	3.286615	-5.948673
O	-1.330148	1.331029	-7.904259
Zn	-5.772095	-1.154411	-8.080877
Zn	-1.154419	1.154411	-5.772055
Zn	1.154419	-1.154411	-5.772055
Zn	-3.463257	1.154411	-8.080877
Ac	0.000000	4.617644	-4.617644
Ac	2.308838	2.308822	-6.926466
O	3.638986	3.639851	-5.595437
O	-0.978690	5.595437	-8.257495
O	0.978690	3.639851	-8.257495
O	1.330148	5.948673	-5.948673
O	5.596366	5.595437	-5.595437
O	1.330148	7.904259	-7.904259
O	3.287528	7.904259	-5.948673
O	3.287528	5.948673	-7.904259
Zn	-1.154419	3.463233	-8.080877
Zn	3.463257	5.772055	-5.772055
Zn	5.772095	3.463233	-5.772055
Zn	1.154419	5.772055	-8.080877
Ac	4.617676	-4.617644	0.000000
Ac	6.926514	-6.926466	-2.308822
O	8.256662	-5.595437	-0.977793
O	3.638986	-3.639851	-3.639851
O	5.596366	-5.595437	-3.639851
O	5.947824	-3.286615	-1.331029
O	10.214042	-3.639851	-0.977793
O	5.947824	-1.331029	-3.286615
O	7.905204	-1.331029	-1.331029
O	7.905204	-3.286615	-3.286615
Zn	3.463257	-5.772055	-3.463233
Zn	8.080933	-3.463233	-1.154411
Zn	10.389771	-5.772055	-1.154411
Zn	5.772095	-3.463233	-3.463233
Ac	9.235352	0.000000	0.000000
Ac	11.544190	-2.308822	-2.308822
O	12.874338	-0.977793	-0.977793
O	8.256662	0.977793	-3.639851
O	10.214042	-0.977793	-3.639851
O	10.565500	1.331029	-1.331029
O	14.831718	0.977793	-0.977793
O	10.565500	3.286615	-3.286615
O	12.522880	3.286615	-1.331029
O	12.522880	1.331029	-3.286615
Zn	8.080933	-1.154411	-3.463233
Zn	12.698609	1.154411	-1.154411
Zn	15.007447	-1.154411	-1.154411
Zn	10.389771	1.154411	-3.463233
Ac	0.000000	-4.617644	-4.617644
Ac	2.308838	-6.926466	-6.926466
O	3.638986	-5.595437	-5.595437
O	-0.978690	-3.639851	-8.257495
O	0.978690	-5.595437	-8.257495
O	1.330148	-3.286615	-5.948673
O	5.596366	-3.639851	-5.595437
O	1.330148	-1.331029	-7.904259
O	3.287528	-1.331029	-5.948673
O	3.287528	-3.286615	-7.904259
Zn	-1.154419	-5.772055	-8.080877
Zn	3.463257	-3.463233	-5.772055
Zn	5.772095	-5.772055	-5.772055
Zn	1.154419	-3.463233	-8.080877
Ac	4.617676	0.000000	-4.617644
Ac	6.926514	-2.308822	-6.926466
O	8.256662	-0.977793	-5.595437
O	3.638986	0.977793	-8.257495
O	5.596366	-0.977793	-8.257495
O	5.947824	1.331029	-5.948673
O	10.214042	0.977793	-5.595437
O	5.947824	3.286615	-7.904259
O	7.905204	3.286615	-5.948673
O	7.905204	1.331029	-7.904259
Zn	3.463257	-1.154411	-8.080877
Zn	8.080933	1.154411	-5.772055
Zn	10.389771	-1.154411	-5.772055
Zn	5.772095	1.154411	-8.080877
