112

Co	0.000000	0.000000	0.000000
Co	2.367131	-2.367244	-2.367244
O	1.061942	1.062133	-1.062133
O	3.429073	-1.305101	-1.305101
O	-1.305179	1.305101	-3.429377
O	1.305179	-1.305101	-3.429377
O	1.061942	3.672345	-3.672345
O	3.672311	1.062133	-3.672345
O	3.672311	3.672345	-1.062133
O	6.039442	1.305101	-1.305101
Sr	-1.183561	-1.183622	-3.550856
Sr	1.183561	1.183622	-3.550856
Sr	5.917823	-1.183622	-1.183622
Sr	3.550692	1.183622	-1.183622
Co	4.734257	4.734479	0.000000
Co	7.101388	2.367235	-2.367244
O	5.796199	5.796611	-1.062133
O	8.163330	3.429377	-1.305101
O	3.429078	6.039580	-3.429377
O	6.039436	3.429377	-3.429377
O	5.796199	8.406824	-3.672345
O	8.406568	5.796611	-3.672345
O	8.406568	8.406824	-1.062133
O	10.773699	6.039580	-1.305101
Sr	3.550696	3.550857	-3.550856
Sr	5.917818	5.918101	-3.550856
Sr	10.652080	3.550857	-1.183622
Sr	8.284949	5.918101	-1.183622
Co	-4.734257	0.000000	-4.734479
Co	-2.367126	-2.367244	-7.101722
O	-3.672315	1.062133	-5.796611
O	-1.305184	-1.305101	-6.039580
O	-6.039436	1.305101	-8.163855
O	-3.429078	-1.305101	-8.163855
O	-3.672315	3.672345	-8.406824
O	-1.061947	1.062133	-8.406824
O	-1.061947	3.672345	-5.796611
O	1.305185	1.305101	-6.039580
Sr	-5.917818	-1.183622	-8.285335
Sr	-3.550696	1.183622	-8.285335
Sr	1.183566	-1.183622	-5.918101
Sr	-1.183565	1.183622	-5.918101
Co	0.000000	4.734479	-4.734479
Co	2.367131	2.367235	-7.101722
O	1.061942	5.796611	-5.796611
O	3.429073	3.429377	-6.039580
O	-1.305179	6.039580	-8.163855
O	1.305179	3.429377	-8.163855
O	1.061942	8.406824	-8.406824
O	3.672311	5.796611	-8.406824
O	3.672311	8.406824	-5.796611
O	6.039442	6.039580	-6.039580
Sr	-1.183561	3.550857	-8.285335
Sr	1.183561	5.918101	-8.285335
Sr	5.917823	3.550857	-5.918101
Sr	3.550692	5.918101	-5.918101
Co	4.734257	-4.734479	0.000000
Co	7.101388	-7.101722	-2.367244
O	5.796199	-3.672346	-1.062133
O	8.163330	-6.039580	-1.305101
O	3.429078	-3.429377	-3.429377
O	6.039436	-6.039580	-3.429377
O	5.796199	-1.062133	-3.672345
O	8.406568	-3.672346	-3.672345
O	8.406568	-1.062133	-1.062133
O	10.773699	-3.429377	-1.305101
Sr	3.550696	-5.918101	-3.550856
Sr	5.917818	-3.550857	-3.550856
Sr	10.652080	-5.918101	-1.183622
Sr	8.284949	-3.550857	-1.183622
Co	9.468514	0.000000	0.000000
Co	11.835645	-2.367244	-2.367244
O	10.530456	1.062133	-1.062133
O	12.897587	-1.305101	-1.305101
O	8.163335	1.305101	-3.429377
O	10.773693	-1.305101	-3.429377
O	10.530456	3.672345	-3.672345
O	13.140825	1.062133	-3.672345
O	13.140825	3.672345	-1.062133
O	15.507956	1.305101	-1.305101
Sr	8.284954	-1.183622	-3.550856
Sr	10.652075	1.183622	-3.550856
Sr	15.386337	-1.183622	-1.183622
Sr	13.019206	1.183622	-1.183622
Co	0.000000	-4.734479	-4.734479
Co	2.367131	-7.101722	-7.101722
O	1.061942	-3.672346	-5.796611
O	3.429073	-6.039580	-6.039580
O	-1.305179	-3.429377	-8.163855
O	1.305179	-6.039580	-8.163855
O	1.061942	-1.062133	-8.406824
O	3.672311	-3.672346	-8.406824
O	3.672311	-1.062133	-5.796611
O	6.039442	-3.429377	-6.039580
Sr	-1.183561	-5.918101	-8.285335
Sr	1.183561	-3.550857	-8.285335
Sr	5.917823	-5.918101	-5.918101
Sr	3.550692	-3.550857	-5.918101
Co	4.734257	0.000000	-4.734479
Co	7.101388	-2.367244	-7.101722
O	5.796199	1.062133	-5.796611
O	8.163330	-1.305101	-6.039580
O	3.429078	1.305101	-8.163855
O	6.039436	-1.305101	-8.163855
O	5.796199	3.672345	-8.406824
O	8.406568	1.062133	-8.406824
O	8.406568	3.672345	-5.796611
O	10.773699	1.305101	-6.039580
Sr	3.550696	-1.183622	-8.285335
Sr	5.917818	1.183622	-8.285335
Sr	10.652080	-1.183622	-5.918101
Sr	8.284949	1.183622	-5.918101
