112

O	-1.106284	1.105943	-3.618822
O	3.618180	-1.105943	-1.105943
O	1.106284	-1.105943	-3.618822
O	1.255953	1.256439	-1.256439
O	5.830748	1.105943	-1.105943
O	1.255953	3.468325	-3.468325
O	3.468511	3.468325	-1.256439
O	3.468511	1.256440	-3.468325
Si	0.000000	0.000000	0.000000
Si	2.362227	-2.362382	-2.362382
Y	-1.181113	-1.181196	-3.543578
Y	5.905577	-1.181196	-1.181196
Y	1.181113	1.181196	-3.543578
Y	3.543350	1.181196	-1.181196
O	3.618177	5.830709	-3.618822
O	8.342641	3.618823	-1.105943
O	5.830745	3.618823	-3.618822
O	5.980414	5.981206	-1.256439
O	10.555209	5.830709	-1.105943
O	5.980414	8.193091	-3.468325
O	8.192972	8.193091	-1.256439
O	8.192972	5.981206	-3.468325
Si	4.724461	4.724766	0.000000
Si	7.086688	2.362384	-2.362382
Y	3.543348	3.543570	-3.543578
Y	10.630038	3.543570	-1.181196
Y	5.905575	5.905962	-3.543578
Y	8.267811	5.905962	-1.181196
O	-5.830745	1.105943	-8.343588
O	-1.106281	-1.105943	-5.830709
O	-3.618177	-1.105943	-8.343588
O	-3.468508	1.256439	-5.981206
O	1.106287	1.105943	-5.830709
O	-3.468508	3.468325	-8.193091
O	-1.255950	3.468325	-5.981206
O	-1.255950	1.256440	-8.193091
Si	-4.724461	0.000000	-4.724766
Si	-2.362234	-2.362382	-7.087149
Y	-5.905575	-1.181196	-8.268345
Y	1.181116	-1.181196	-5.905962
Y	-3.543348	1.181196	-8.268345
Y	-1.181111	1.181196	-5.905962
O	-1.106284	5.830709	-8.343588
O	3.618180	3.618823	-5.830709
O	1.106284	3.618823	-8.343588
O	1.255953	5.981206	-5.981206
O	5.830748	5.830709	-5.830709
O	1.255953	8.193091	-8.193091
O	3.468511	8.193091	-5.981206
O	3.468511	5.981206	-8.193091
Si	0.000000	4.724766	-4.724766
Si	2.362227	2.362384	-7.087149
Y	-1.181113	3.543570	-8.268345
Y	5.905577	3.543570	-5.905962
Y	1.181113	5.905962	-8.268345
Y	3.543350	5.905962	-5.905962
O	3.618177	-3.618823	-3.618822
O	8.342641	-5.830709	-1.105943
O	5.830745	-5.830709	-3.618822
O	5.980414	-3.468327	-1.256439
O	10.555209	-3.618823	-1.105943
O	5.980414	-1.256441	-3.468325
O	8.192972	-1.256441	-1.256439
O	8.192972	-3.468327	-3.468325
Si	4.724461	-4.724766	0.000000
Si	7.086688	-7.087149	-2.362382
Y	3.543348	-5.905962	-3.543578
Y	10.630038	-5.905962	-1.181196
Y	5.905575	-3.543570	-3.543578
Y	8.267811	-3.543570	-1.181196
O	8.342638	1.105943	-3.618822
O	13.067102	-1.105943	-1.105943
O	10.555206	-1.105943	-3.618822
O	10.704875	1.256439	-1.256439
O	15.279670	1.105943	-1.105943
O	10.704875	3.468325	-3.468325
O	12.917433	3.468325	-1.256439
O	12.917433	1.256440	-3.468325
Si	9.448922	0.000000	0.000000
Si	11.811149	-2.362382	-2.362382
Y	8.267809	-1.181196	-3.543578
Y	15.354500	-1.181196	-1.181196
Y	10.630036	1.181196	-3.543578
Y	12.992273	1.181196	-1.181196
O	-1.106284	-3.618823	-8.343588
O	3.618180	-5.830709	-5.830709
O	1.106284	-5.830709	-8.343588
O	1.255953	-3.468327	-5.981206
O	5.830748	-3.618823	-5.830709
O	1.255953	-1.256441	-8.193091
O	3.468511	-1.256441	-5.981206
O	3.468511	-3.468327	-8.193091
Si	0.000000	-4.724766	-4.724766
Si	2.362227	-7.087149	-7.087149
Y	-1.181113	-5.905962	-8.268345
Y	5.905577	-5.905962	-5.905962
Y	1.181113	-3.543570	-8.268345
Y	3.543350	-3.543570	-5.905962
O	3.618177	1.105943	-8.343588
O	8.342641	-1.105943	-5.830709
O	5.830745	-1.105943	-8.343588
O	5.980414	1.256439	-5.981206
O	10.555209	1.105943	-5.830709
O	5.980414	3.468325	-8.193091
O	8.192972	3.468325	-5.981206
O	8.192972	1.256440	-8.193091
Si	4.724461	0.000000	-4.724766
Si	7.086688	-2.362382	-7.087149
Y	3.543348	-1.181196	-8.268345
Y	10.630038	-1.181196	-5.905962
Y	5.905575	1.181196	-8.268345
Y	8.267811	1.181196	-5.905962
