40

B	0.000000	0.000000	0.000000
Ni	1.800947	1.800947	1.800947
O	1.800947	1.800947	0.000000
O	1.800947	0.000000	1.800947
O	0.000000	1.800947	1.800947
B	0.000000	0.000000	3.601899
Ni	1.800947	1.800947	5.402846
O	1.800947	1.800947	3.601899
O	1.800947	0.000000	5.402846
O	0.000000	1.800947	5.402846
B	0.000000	3.601899	0.000000
Ni	1.800947	5.402846	1.800947
O	1.800947	5.402846	0.000000
O	1.800947	3.601899	1.800947
O	0.000000	5.402846	1.800947
B	0.000000	3.601899	3.601899
Ni	1.800947	5.402846	5.402846
O	1.800947	5.402846	3.601899
O	1.800947	3.601899	5.402846
O	0.000000	5.402846	5.402846
B	3.601899	0.000000	0.000000
Ni	5.402846	1.800947	1.800947
O	5.402846	1.800947	0.000000
O	5.402846	0.000000	1.800947
O	3.601899	1.800947	1.800947
B	3.601899	0.000000	3.601899
Ni	5.402846	1.800947	5.402846
O	5.402846	1.800947	3.601899
O	5.402846	0.000000	5.402846
O	3.601899	1.800947	5.402846
B	3.601899	3.601899	0.000000
Ni	5.402846	5.402846	1.800947
O	5.402846	5.402846	0.000000
O	5.402846	3.601899	1.800947
O	3.601899	5.402846	1.800947
B	3.601899	3.601899	3.601899
Ni	5.402846	5.402846	5.402846
O	5.402846	5.402846	3.601899
O	5.402846	3.601899	5.402846
O	3.601899	5.402846	5.402846
