112

Ca	0.000000	0.000000	0.000000
Ca	2.383833	-2.384180	-2.384180
Ho	-1.191917	-1.192095	-3.576276
Ho	5.959573	-1.192095	-1.192095
Ho	1.191917	1.192095	-3.576276
Ho	3.575750	1.192095	-1.192095
O	3.695834	-1.071506	-1.071506
O	-1.071823	1.071506	-3.696865
O	1.071823	-1.071506	-3.696865
O	1.312011	1.312675	-1.312675
O	5.839489	1.071506	-1.071506
O	1.312011	3.455686	-3.455686
O	3.455656	3.455686	-1.312675
O	3.455656	1.312675	-3.455686
Ca	4.767662	4.768368	0.000000
Ca	7.151495	2.384187	-2.384180
Ho	3.575745	3.576272	-3.576276
Ho	10.727235	3.576272	-1.192095
Ho	5.959579	5.960463	-3.576276
Ho	8.343412	5.960463	-1.192095
O	8.463496	3.696862	-1.071506
O	3.695839	5.839873	-3.696865
O	5.839485	3.696862	-3.696865
O	6.079673	6.081042	-1.312675
O	10.607151	5.839873	-1.071506
O	6.079673	8.224054	-3.455686
O	8.223318	8.224054	-1.312675
O	8.223318	6.081042	-3.455686
Ca	-4.767662	0.000000	-4.768368
Ca	-2.383829	-2.384180	-7.152548
Ho	-5.959579	-1.192095	-8.344643
Ho	1.191912	-1.192095	-5.960463
Ho	-3.575745	1.192095	-8.344643
Ho	-1.191912	1.192095	-5.960463
O	-1.071828	-1.071506	-5.839873
O	-5.839485	1.071506	-8.465233
O	-3.695839	-1.071506	-8.465233
O	-3.455651	1.312675	-6.081042
O	1.071827	1.071506	-5.839873
O	-3.455651	3.455686	-8.224054
O	-1.312006	3.455686	-6.081042
O	-1.312006	1.312675	-8.224054
Ca	0.000000	4.768368	-4.768368
Ca	2.383833	2.384187	-7.152548
Ho	-1.191917	3.576272	-8.344643
Ho	5.959573	3.576272	-5.960463
Ho	1.191917	5.960463	-8.344643
Ho	3.575750	5.960463	-5.960463
O	3.695834	3.696862	-5.839873
O	-1.071823	5.839873	-8.465233
O	1.071823	3.696862	-8.465233
O	1.312011	6.081042	-6.081042
O	5.839489	5.839873	-5.839873
O	1.312011	8.224054	-8.224054
O	3.455656	8.224054	-6.081042
O	3.455656	6.081042	-8.224054
Ca	4.767662	-4.768368	0.000000
Ca	7.151495	-7.152548	-2.384180
Ho	3.575745	-5.960463	-3.576276
Ho	10.727235	-5.960463	-1.192095
Ho	5.959579	-3.576272	-3.576276
Ho	8.343412	-3.576272	-1.192095
O	8.463496	-5.839873	-1.071506
O	3.695839	-3.696862	-3.696865
O	5.839485	-5.839873	-3.696865
O	6.079673	-3.455693	-1.312675
O	10.607151	-3.696862	-1.071506
O	6.079673	-1.312682	-3.455686
O	8.223318	-1.312682	-1.312675
O	8.223318	-3.455693	-3.455686
Ca	9.535324	0.000000	0.000000
Ca	11.919157	-2.384180	-2.384180
Ho	8.343407	-1.192095	-3.576276
Ho	15.494897	-1.192095	-1.192095
Ho	10.727241	1.192095	-3.576276
Ho	13.111074	1.192095	-1.192095
O	13.231158	-1.071506	-1.071506
O	8.463501	1.071506	-3.696865
O	10.607147	-1.071506	-3.696865
O	10.847335	1.312675	-1.312675
O	15.374813	1.071506	-1.071506
O	10.847335	3.455686	-3.455686
O	12.990980	3.455686	-1.312675
O	12.990980	1.312675	-3.455686
Ca	0.000000	-4.768368	-4.768368
Ca	2.383833	-7.152548	-7.152548
Ho	-1.191917	-5.960463	-8.344643
Ho	5.959573	-5.960463	-5.960463
Ho	1.191917	-3.576272	-8.344643
Ho	3.575750	-3.576272	-5.960463
O	3.695834	-5.839873	-5.839873
O	-1.071823	-3.696862	-8.465233
O	1.071823	-5.839873	-8.465233
O	1.312011	-3.455693	-6.081042
O	5.839489	-3.696862	-5.839873
O	1.312011	-1.312682	-8.224054
O	3.455656	-1.312682	-6.081042
O	3.455656	-3.455693	-8.224054
Ca	4.767662	0.000000	-4.768368
Ca	7.151495	-2.384180	-7.152548
Ho	3.575745	-1.192095	-8.344643
Ho	10.727235	-1.192095	-5.960463
Ho	5.959579	1.192095	-8.344643
Ho	8.343412	1.192095	-5.960463
O	8.463496	-1.071506	-5.839873
O	3.695839	1.071506	-8.465233
O	5.839485	-1.071506	-8.465233
O	6.079673	1.312675	-6.081042
O	10.607151	1.071506	-5.839873
O	6.079673	3.455686	-8.224054
O	8.223318	3.455686	-6.081042
O	8.223318	1.312675	-8.224054
