40

B	0.000000	0.000000	0.000000
O	2.116310	2.116310	0.000000
O	2.116310	0.000000	2.116310
O	0.000000	2.116310	2.116310
Pu	2.116310	2.116310	2.116310
B	0.000000	0.000000	4.232620
O	2.116310	2.116310	4.232620
O	2.116310	0.000000	6.348930
O	0.000000	2.116310	6.348930
Pu	2.116310	2.116310	6.348930
B	0.000000	4.232620	0.000000
O	2.116310	6.348930	0.000000
O	2.116310	4.232620	2.116310
O	0.000000	6.348930	2.116310
Pu	2.116310	6.348930	2.116310
B	0.000000	4.232620	4.232620
O	2.116310	6.348930	4.232620
O	2.116310	4.232620	6.348930
O	0.000000	6.348930	6.348930
Pu	2.116310	6.348930	6.348930
B	4.232620	0.000000	0.000000
O	6.348930	2.116310	0.000000
O	6.348930	0.000000	2.116310
O	4.232620	2.116310	2.116310
Pu	6.348930	2.116310	2.116310
B	4.232620	0.000000	4.232620
O	6.348930	2.116310	4.232620
O	6.348930	0.000000	6.348930
O	4.232620	2.116310	6.348930
Pu	6.348930	2.116310	6.348930
B	4.232620	4.232620	0.000000
O	6.348930	6.348930	0.000000
O	6.348930	4.232620	2.116310
O	4.232620	6.348930	2.116310
Pu	6.348930	6.348930	2.116310
B	4.232620	4.232620	4.232620
O	6.348930	6.348930	4.232620
O	6.348930	4.232620	6.348930
O	4.232620	6.348930	6.348930
Pu	6.348930	6.348930	6.348930
