40

As	1.849109	1.849109	1.849109
B	0.000000	0.000000	0.000000
O	0.000000	1.849109	1.849109
O	1.849109	0.000000	1.849109
O	1.849109	1.849109	0.000000
As	1.849109	1.849109	5.547327
B	0.000000	0.000000	3.698218
O	0.000000	1.849109	5.547327
O	1.849109	0.000000	5.547327
O	1.849109	1.849109	3.698218
As	1.849109	5.547327	1.849109
B	0.000000	3.698218	0.000000
O	0.000000	5.547327	1.849109
O	1.849109	3.698218	1.849109
O	1.849109	5.547327	0.000000
As	1.849109	5.547327	5.547327
B	0.000000	3.698218	3.698218
O	0.000000	5.547327	5.547327
O	1.849109	3.698218	5.547327
O	1.849109	5.547327	3.698218
As	5.547327	1.849109	1.849109
B	3.698218	0.000000	0.000000
O	3.698218	1.849109	1.849109
O	5.547327	0.000000	1.849109
O	5.547327	1.849109	0.000000
As	5.547327	1.849109	5.547327
B	3.698218	0.000000	3.698218
O	3.698218	1.849109	5.547327
O	5.547327	0.000000	5.547327
O	5.547327	1.849109	3.698218
As	5.547327	5.547327	1.849109
B	3.698218	3.698218	0.000000
O	3.698218	5.547327	1.849109
O	5.547327	3.698218	1.849109
O	5.547327	5.547327	0.000000
As	5.547327	5.547327	5.547327
B	3.698218	3.698218	3.698218
O	3.698218	5.547327	5.547327
O	5.547327	3.698218	5.547327
O	5.547327	5.547327	3.698218
