40

Hf	0.000000	0.000000	0.000000
O	0.000000	1.965525	1.965525
O	1.965525	0.000000	1.965525
O	1.965525	1.965525	0.000000
Os	1.965525	1.965525	1.965525
Hf	0.000000	0.000000	3.931050
O	0.000000	1.965525	5.896575
O	1.965525	0.000000	5.896575
O	1.965525	1.965525	3.931050
Os	1.965525	1.965525	5.896575
Hf	0.000000	3.931050	0.000000
O	0.000000	5.896575	1.965525
O	1.965525	3.931050	1.965525
O	1.965525	5.896575	0.000000
Os	1.965525	5.896575	1.965525
Hf	0.000000	3.931050	3.931050
O	0.000000	5.896575	5.896575
O	1.965525	3.931050	5.896575
O	1.965525	5.896575	3.931050
Os	1.965525	5.896575	5.896575
Hf	3.931050	0.000000	0.000000
O	3.931050	1.965525	1.965525
O	5.896575	0.000000	1.965525
O	5.896575	1.965525	0.000000
Os	5.896575	1.965525	1.965525
Hf	3.931050	0.000000	3.931050
O	3.931050	1.965525	5.896575
O	5.896575	0.000000	5.896575
O	5.896575	1.965525	3.931050
Os	5.896575	1.965525	5.896575
Hf	3.931050	3.931050	0.000000
O	3.931050	5.896575	1.965525
O	5.896575	3.931050	1.965525
O	5.896575	5.896575	0.000000
Os	5.896575	5.896575	1.965525
Hf	3.931050	3.931050	3.931050
O	3.931050	5.896575	5.896575
O	5.896575	3.931050	5.896575
O	5.896575	5.896575	3.931050
Os	5.896575	5.896575	5.896575
