112

Dy	0.000000	0.000000	0.000000
Dy	2.301709	-2.302503	-2.302503
Hf	-1.150854	-1.151251	-3.453754
Hf	3.452563	1.151251	-1.151251
Hf	5.754272	-1.151251	-1.151251
Hf	1.150854	1.151251	-3.453754
O	3.555549	-1.047662	-1.047662
O	-1.047868	1.047662	-3.557344
O	1.047868	-1.047662	-3.557344
O	1.253841	1.254841	-1.254841
O	5.651285	1.047662	-1.047662
O	1.253841	3.350165	-3.350165
O	3.349577	3.350165	-1.254841
O	3.349577	1.254841	-3.350165
Dy	4.603417	4.605006	0.000000
Dy	6.905126	2.302503	-2.302503
Hf	3.452563	3.453754	-3.453754
Hf	8.055980	5.756257	-1.151251
Hf	10.357689	3.453754	-1.151251
Hf	5.754272	5.756257	-3.453754
O	8.158967	3.557344	-1.047662
O	3.555549	5.652667	-3.557344
O	5.651285	3.557344	-3.557344
O	5.857258	5.859847	-1.254841
O	10.254702	5.652667	-1.047662
O	5.857258	7.955170	-3.350165
O	7.952994	7.955170	-1.254841
O	7.952994	5.859847	-3.350165
Dy	-4.603417	0.000000	-4.605006
Dy	-2.301709	-2.302503	-6.907509
Hf	-5.754272	-1.151251	-8.058760
Hf	-1.150854	1.151251	-5.756257
Hf	1.150854	-1.151251	-5.756257
Hf	-3.452563	1.151251	-8.058760
O	-1.047868	-1.047662	-5.652667
O	-5.651285	1.047662	-8.162350
O	-3.555549	-1.047662	-8.162350
O	-3.349577	1.254841	-5.859847
O	1.047868	1.047662	-5.652667
O	-3.349577	3.350165	-7.955170
O	-1.253841	3.350165	-5.859847
O	-1.253841	1.254841	-7.955170
Dy	0.000000	4.605006	-4.605006
Dy	2.301709	2.302503	-6.907509
Hf	-1.150854	3.453754	-8.058760
Hf	3.452563	5.756257	-5.756257
Hf	5.754272	3.453754	-5.756257
Hf	1.150854	5.756257	-8.058760
O	3.555549	3.557344	-5.652667
O	-1.047868	5.652667	-8.162350
O	1.047868	3.557344	-8.162350
O	1.253841	5.859847	-5.859847
O	5.651285	5.652667	-5.652667
O	1.253841	7.955170	-7.955170
O	3.349577	7.955170	-5.859847
O	3.349577	5.859847	-7.955170
Dy	4.603417	-4.605006	0.000000
Dy	6.905126	-6.907509	-2.302503
Hf	3.452563	-5.756257	-3.453754
Hf	8.055980	-3.453754	-1.151251
Hf	10.357689	-5.756257	-1.151251
Hf	5.754272	-3.453754	-3.453754
O	8.158967	-5.652667	-1.047662
O	3.555549	-3.557344	-3.557344
O	5.651285	-5.652667	-3.557344
O	5.857258	-3.350165	-1.254841
O	10.254702	-3.557344	-1.047662
O	5.857258	-1.254841	-3.350165
O	7.952994	-1.254841	-1.254841
O	7.952994	-3.350165	-3.350165
Dy	9.206834	0.000000	0.000000
Dy	11.508543	-2.302503	-2.302503
Hf	8.055980	-1.151251	-3.453754
Hf	12.659397	1.151251	-1.151251
Hf	14.961106	-1.151251	-1.151251
Hf	10.357689	1.151251	-3.453754
O	12.762384	-1.047662	-1.047662
O	8.158966	1.047662	-3.557344
O	10.254702	-1.047662	-3.557344
O	10.460675	1.254841	-1.254841
O	14.858120	1.047662	-1.047662
O	10.460675	3.350165	-3.350165
O	12.556411	3.350165	-1.254841
O	12.556411	1.254841	-3.350165
Dy	0.000000	-4.605006	-4.605006
Dy	2.301709	-6.907509	-6.907509
Hf	-1.150854	-5.756257	-8.058760
Hf	3.452563	-3.453754	-5.756257
Hf	5.754272	-5.756257	-5.756257
Hf	1.150854	-3.453754	-8.058760
O	3.555549	-5.652667	-5.652667
O	-1.047868	-3.557344	-8.162350
O	1.047868	-5.652667	-8.162350
O	1.253841	-3.350165	-5.859847
O	5.651285	-3.557344	-5.652667
O	1.253841	-1.254841	-7.955170
O	3.349577	-1.254841	-5.859847
O	3.349577	-3.350165	-7.955170
Dy	4.603417	0.000000	-4.605006
Dy	6.905126	-2.302503	-6.907509
Hf	3.452563	-1.151251	-8.058760
Hf	8.055980	1.151251	-5.756257
Hf	10.357689	-1.151251	-5.756257
Hf	5.754272	1.151251	-8.058760
O	8.158967	-1.047662	-5.652667
O	3.555549	1.047662	-8.162350
O	5.651285	-1.047662	-8.162350
O	5.857258	1.254841	-5.859847
O	10.254702	1.047662	-5.652667
O	5.857258	3.350165	-7.955170
O	7.952994	3.350165	-5.859847
O	7.952994	1.254841	-7.955170
