112

O	3.827279	-1.053767	-1.053767
O	-1.054048	1.053767	-3.828413
O	1.054048	-1.053767	-3.828413
O	1.386611	1.387318	-1.387318
O	5.935385	1.053767	-1.053767
O	1.386611	3.494863	-3.494863
O	3.494717	3.494863	-1.387318
O	3.494717	1.387318	-3.494863
Tl	0.000000	0.000000	0.000000
Tl	2.440669	-2.441095	-2.441095
Y	-1.220334	-1.220543	-3.661638
Y	3.661003	1.220543	-1.220543
Y	1.220334	1.220543	-3.661638
Y	6.101671	-1.220543	-1.220543
O	8.708614	3.828417	-1.053767
O	3.827287	5.935952	-3.828413
O	5.935383	3.828417	-3.828413
O	6.267945	6.269503	-1.387318
O	10.816720	5.935952	-1.053767
O	6.267945	8.377048	-3.494863
O	8.376051	8.377048	-1.387318
O	8.376051	6.269503	-3.494863
Tl	4.881335	4.882185	0.000000
Tl	7.322003	2.441089	-2.441095
Y	3.661000	3.661642	-3.661638
Y	8.542337	6.102727	-1.220543
Y	6.101669	6.102727	-3.661638
Y	10.983006	3.661642	-1.220543
O	-1.054055	-1.053767	-5.935952
O	-5.935383	1.053767	-8.710598
O	-3.827287	-1.053767	-8.710598
O	-3.494724	1.387318	-6.269503
O	1.054051	1.053767	-5.935952
O	-3.494724	3.494863	-8.377048
O	-1.386618	3.494863	-6.269503
O	-1.386618	1.387318	-8.377048
Tl	-4.881335	0.000000	-4.882185
Tl	-2.440666	-2.441095	-7.323280
Y	-6.101669	-1.220543	-8.543823
Y	-1.220332	1.220543	-6.102727
Y	-3.661000	1.220543	-8.543823
Y	1.220337	-1.220543	-6.102727
O	3.827279	3.828417	-5.935952
O	-1.054048	5.935952	-8.710598
O	1.054048	3.828417	-8.710598
O	1.386611	6.269503	-6.269503
O	5.935385	5.935952	-5.935952
O	1.386611	8.377048	-8.377048
O	3.494717	8.377048	-6.269503
O	3.494717	6.269503	-8.377048
Tl	0.000000	4.882185	-4.882185
Tl	2.440669	2.441089	-7.323280
Y	-1.220334	3.661642	-8.543823
Y	3.661003	6.102727	-6.102727
Y	1.220334	6.102727	-8.543823
Y	6.101671	3.661642	-6.102727
O	8.708614	-5.935952	-1.053767
O	3.827287	-3.828417	-3.828413
O	5.935383	-5.935952	-3.828413
O	6.267945	-3.494867	-1.387318
O	10.816720	-3.828417	-1.053767
O	6.267945	-1.387322	-3.494863
O	8.376051	-1.387322	-1.387318
O	8.376051	-3.494867	-3.494863
Tl	4.881335	-4.882185	0.000000
Tl	7.322003	-7.323280	-2.441095
Y	3.661000	-6.102727	-3.661638
Y	8.542337	-3.661642	-1.220543
Y	6.101669	-3.661642	-3.661638
Y	10.983006	-6.102727	-1.220543
O	13.589949	-1.053767	-1.053767
O	8.708621	1.053767	-3.828413
O	10.816717	-1.053767	-3.828413
O	11.149280	1.387318	-1.387318
O	15.698054	1.053767	-1.053767
O	11.149280	3.494863	-3.494863
O	13.257386	3.494863	-1.387318
O	13.257386	1.387318	-3.494863
Tl	9.762669	0.000000	0.000000
Tl	12.203338	-2.441095	-2.441095
Y	8.542335	-1.220543	-3.661638
Y	13.423672	1.220543	-1.220543
Y	10.983004	1.220543	-3.661638
Y	15.864341	-1.220543	-1.220543
O	3.827279	-5.935952	-5.935952
O	-1.054048	-3.828417	-8.710598
O	1.054048	-5.935952	-8.710598
O	1.386611	-3.494867	-6.269503
O	5.935385	-3.828417	-5.935952
O	1.386611	-1.387322	-8.377048
O	3.494717	-1.387322	-6.269503
O	3.494717	-3.494867	-8.377048
Tl	0.000000	-4.882185	-4.882185
Tl	2.440669	-7.323280	-7.323280
Y	-1.220334	-6.102727	-8.543823
Y	3.661003	-3.661642	-6.102727
Y	1.220334	-3.661642	-8.543823
Y	6.101671	-6.102727	-6.102727
O	8.708614	-1.053767	-5.935952
O	3.827287	1.053767	-8.710598
O	5.935383	-1.053767	-8.710598
O	6.267945	1.387318	-6.269503
O	10.816720	1.053767	-5.935952
O	6.267945	3.494863	-8.377048
O	8.376051	3.494863	-6.269503
O	8.376051	1.387318	-8.377048
Tl	4.881335	0.000000	-4.882185
Tl	7.322003	-2.441095	-7.323280
Y	3.661000	-1.220543	-8.543823
Y	8.542337	1.220543	-6.102727
Y	6.101669	1.220543	-8.543823
Y	10.983006	-1.220543	-6.102727
