416

O	3.276739	0.914942	1.148207
O	7.207556	0.948652	1.181917
O	1.148207	3.276739	0.914942
O	5.142370	3.011801	1.179880
O	3.009348	5.378087	1.184369
O	7.472494	5.341925	0.916979
O	1.181917	7.207556	0.948652
O	5.106207	7.474946	0.912490
O	0.914942	1.148207	3.276739
O	5.378087	1.184369	3.009348
O	3.281228	3.281228	3.281228
O	7.205519	3.013838	3.245066
O	1.179880	5.142370	3.011801
O	5.110697	5.108660	3.045511
O	3.245066	7.205519	3.013838
O	7.239229	7.470457	3.278776
O	3.011801	1.179880	5.142370
O	7.474946	0.912490	5.106207
O	1.184369	3.009348	5.378087
O	5.108660	3.045511	5.110697
O	3.045511	5.110697	5.108660
O	7.438784	5.375635	5.373598
O	0.916979	7.472494	5.341925
O	5.373598	7.438784	5.375635
O	0.948652	1.181917	7.207556
O	5.341925	0.916979	7.472494
O	3.013838	3.245066	7.205519
O	7.470457	3.278776	7.239229
O	0.912490	5.106207	7.474946
O	5.375635	5.373598	7.438784
O	3.278776	7.239229	7.470457
O	7.203066	7.203066	7.203066
Ti	5.242147	1.148936	0.947923
Ti	0.947923	5.242147	1.148936
Ti	3.044782	7.439513	1.048429
Ti	7.439513	1.048429	3.044782
Ti	5.342654	3.245795	3.145288
Ti	3.145288	5.342654	3.245795
Ti	1.148936	0.947923	5.242147
Ti	3.245795	3.145288	5.342654
Ti	7.339006	7.238500	5.141641
Ti	1.048429	3.044782	7.439513
Ti	7.238500	5.141641	7.339006
Ti	5.141641	7.339006	7.238500
Zn	-0.050055	-0.050055	-0.050055
Zn	4.143662	4.243773	0.050055
Zn	2.146914	2.146914	2.146914
Zn	6.240521	6.340632	2.046803
Zn	4.243773	0.050055	4.143662
Zn	0.050055	4.143662	4.243773
Zn	6.340632	2.046803	6.240521
Zn	2.046803	6.240521	6.340632
O	3.276739	0.914942	9.535643
O	7.207556	0.948652	9.569353
O	1.148207	3.276739	9.302378
O	5.142370	3.011801	9.567316
O	3.009348	5.378087	9.571805
O	7.472494	5.341925	9.304415
O	1.181917	7.207556	9.336087
O	5.106207	7.474946	9.299925
O	0.914942	1.148207	11.664175
O	5.378087	1.184369	11.396784
O	3.281228	3.281228	11.668664
O	7.205519	3.013838	11.632502
O	1.179880	5.142370	11.399237
O	5.110697	5.108660	11.432946
O	3.245066	7.205519	11.401274
O	7.239229	7.470457	11.666212
O	3.011801	1.179880	13.529805
O	7.474946	0.912490	13.493643
O	1.184369	3.009348	13.765523
O	5.108660	3.045511	13.498133
O	3.045511	5.110697	13.496096
O	7.438784	5.375635	13.761034
O	0.916979	7.472494	13.729361
O	5.373598	7.438784	13.763071
O	0.948652	1.181917	15.594992
O	5.341925	0.916979	15.859930
O	3.013838	3.245066	15.592955
O	7.470457	3.278776	15.626664
O	0.912490	5.106207	15.862382
O	5.375635	5.373598	15.826220
O	3.278776	7.239229	15.857893
O	7.203066	7.203066	15.590502
Ti	5.242147	1.148936	9.335359
Ti	0.947923	5.242147	9.536372
Ti	3.044782	7.439513	9.435865
Ti	7.439513	1.048429	11.432218
Ti	5.342654	3.245795	11.532724
Ti	3.145288	5.342654	11.633231
Ti	1.148936	0.947923	13.629583
Ti	3.245795	3.145288	13.730090
Ti	7.339006	7.238500	13.529077
Ti	1.048429	3.044782	15.826949
Ti	7.238500	5.141641	15.726442
Ti	5.141641	7.339006	15.625935
Zn	-0.050055	-0.050055	8.337380
Zn	4.143662	4.243773	8.437491
Zn	2.146914	2.146914	10.534350
Zn	6.240521	6.340632	10.434239
Zn	4.243773	0.050055	12.531098
Zn	0.050055	4.143662	12.631209
Zn	6.340632	2.046803	14.627957
Zn	2.046803	6.240521	14.728068
O	3.276739	9.302378	1.148207
O	7.207556	9.336087	1.181917
O	1.148207	11.664175	0.914942
O	5.142370	11.399237	1.179880
O	3.009348	13.765523	1.184369
O	7.472494	13.729361	0.916979
O	1.181917	15.594992	0.948652
O	5.106207	15.862382	0.912490
O	0.914942	9.535643	3.276739
O	5.378087	9.571805	3.009348
O	3.281228	11.668664	3.281228
O	7.205519	11.401274	3.245066
O	1.179880	13.529805	3.011801
O	5.110697	13.496096	3.045511
O	3.245066	15.592955	3.013838
O	7.239229	15.857893	3.278776
O	3.011801	9.567316	5.142370
O	7.474946	9.299925	5.106207
O	1.184369	11.396784	5.378087
O	5.108660	11.432946	5.110697
O	3.045511	13.498133	5.108660
O	7.438784	13.763071	5.373598
O	0.916979	15.859930	5.341925
O	5.373598	15.826220	5.375635
O	0.948652	9.569353	7.207556
O	5.341925	9.304415	7.472494
O	3.013838	11.632502	7.205519
O	7.470457	11.666212	7.239229
O	0.912490	13.493643	7.474946
O	5.375635	13.761034	7.438784
O	3.278776	15.626664	7.470457
O	7.203066	15.590502	7.203066
Ti	5.242147	9.536372	0.947923
Ti	0.947923	13.629583	1.148936
Ti	3.044782	15.826949	1.048429
Ti	7.439513	9.435865	3.044782
Ti	5.342654	11.633231	3.145288
Ti	3.145288	13.730090	3.245795
Ti	1.148936	9.335359	5.242147
Ti	3.245795	11.532724	5.342654
Ti	7.339006	15.625935	5.141641
Ti	1.048429	11.432218	7.439513
Ti	7.238500	13.529077	7.339006
Ti	5.141641	15.726442	7.238500
Zn	-0.050055	8.337380	-0.050055
Zn	4.143662	12.631209	0.050055
Zn	2.146914	10.534350	2.146914
Zn	6.240521	14.728068	2.046803
Zn	4.243773	8.437491	4.143662
Zn	0.050055	12.531098	4.243773
Zn	6.340632	10.434239	6.240521
Zn	2.046803	14.627957	6.340632
O	3.276739	9.302378	9.535643
O	7.207556	9.336087	9.569353
O	1.148207	11.664175	9.302378
O	5.142370	11.399237	9.567316
O	3.009348	13.765523	9.571805
O	7.472494	13.729361	9.304415
O	1.181917	15.594992	9.336087
O	5.106207	15.862382	9.299925
O	0.914942	9.535643	11.664175
O	5.378087	9.571805	11.396784
O	3.281228	11.668664	11.668664
O	7.205519	11.401274	11.632502
O	1.179880	13.529805	11.399237
O	5.110697	13.496096	11.432946
O	3.245066	15.592955	11.401274
O	7.239229	15.857893	11.666212
O	3.011801	9.567316	13.529805
O	7.474946	9.299925	13.493643
O	1.184369	11.396784	13.765523
O	5.108660	11.432946	13.498133
O	3.045511	13.498133	13.496096
O	7.438784	13.763071	13.761034
O	0.916979	15.859930	13.729361
O	5.373598	15.826220	13.763071
O	0.948652	9.569353	15.594992
O	5.341925	9.304415	15.859930
O	3.013838	11.632502	15.592955
O	7.470457	11.666212	15.626664
O	0.912490	13.493643	15.862382
O	5.375635	13.761034	15.826220
O	3.278776	15.626664	15.857893
O	7.203066	15.590502	15.590502
Ti	5.242147	9.536372	9.335359
Ti	0.947923	13.629583	9.536372
Ti	3.044782	15.826949	9.435865
Ti	7.439513	9.435865	11.432218
Ti	5.342654	11.633231	11.532724
Ti	3.145288	13.730090	11.633231
Ti	1.148936	9.335359	13.629583
Ti	3.245795	11.532724	13.730090
Ti	7.339006	15.625935	13.529077
Ti	1.048429	11.432218	15.826949
Ti	7.238500	13.529077	15.726442
Ti	5.141641	15.726442	15.625935
Zn	-0.050055	8.337380	8.337380
Zn	4.143662	12.631209	8.437491
Zn	2.146914	10.534350	10.534350
Zn	6.240521	14.728068	10.434239
Zn	4.243773	8.437491	12.531098
Zn	0.050055	12.531098	12.631209
Zn	6.340632	10.434239	14.627957
Zn	2.046803	14.627957	14.728068
O	11.664175	0.914942	1.148207
O	15.594992	0.948652	1.181917
O	9.535643	3.276739	0.914942
O	13.529805	3.011801	1.179880
O	11.396784	5.378087	1.184369
O	15.859930	5.341925	0.916979
O	9.569353	7.207556	0.948652
O	13.493643	7.474946	0.912490
O	9.302378	1.148207	3.276739
O	13.765523	1.184369	3.009348
O	11.668664	3.281228	3.281228
O	15.592955	3.013838	3.245066
O	9.567316	5.142370	3.011801
O	13.498133	5.108660	3.045511
O	11.632502	7.205519	3.013838
O	15.626664	7.470457	3.278776
O	11.399237	1.179880	5.142370
O	15.862382	0.912490	5.106207
O	9.571805	3.009348	5.378087
O	13.496096	3.045511	5.110697
O	11.432946	5.110697	5.108660
O	15.826220	5.375635	5.373598
O	9.304415	7.472494	5.341925
O	13.761034	7.438784	5.375635
O	9.336087	1.181917	7.207556
O	13.729361	0.916979	7.472494
O	11.401274	3.245066	7.205519
O	15.857893	3.278776	7.239229
O	9.299925	5.106207	7.474946
O	13.763071	5.373598	7.438784
O	11.666212	7.239229	7.470457
O	15.590502	7.203066	7.203066
Ti	13.629583	1.148936	0.947923
Ti	9.335359	5.242147	1.148936
Ti	11.432218	7.439513	1.048429
Ti	15.826949	1.048429	3.044782
Ti	13.730090	3.245795	3.145288
Ti	11.532724	5.342654	3.245795
Ti	9.536372	0.947923	5.242147
Ti	11.633231	3.145288	5.342654
Ti	15.726442	7.238500	5.141641
Ti	9.435865	3.044782	7.439513
Ti	15.625935	5.141641	7.339006
Ti	13.529077	7.339006	7.238500
Zn	8.337380	-0.050055	-0.050055
Zn	12.531098	4.243773	0.050055
Zn	10.534350	2.146914	2.146914
Zn	14.627957	6.340632	2.046803
Zn	12.631209	0.050055	4.143662
Zn	8.437491	4.143662	4.243773
Zn	14.728068	2.046803	6.240521
Zn	10.434239	6.240521	6.340632
O	11.664175	0.914942	9.535643
O	15.594992	0.948652	9.569353
O	9.535643	3.276739	9.302378
O	13.529805	3.011801	9.567316
O	11.396784	5.378087	9.571805
O	15.859930	5.341925	9.304415
O	9.569353	7.207556	9.336087
O	13.493643	7.474946	9.299925
O	9.302378	1.148207	11.664175
O	13.765523	1.184369	11.396784
O	11.668664	3.281228	11.668664
O	15.592955	3.013838	11.632502
O	9.567316	5.142370	11.399237
O	13.498133	5.108660	11.432946
O	11.632502	7.205519	11.401274
O	15.626664	7.470457	11.666212
O	11.399237	1.179880	13.529805
O	15.862382	0.912490	13.493643
O	9.571805	3.009348	13.765523
O	13.496096	3.045511	13.498133
O	11.432946	5.110697	13.496096
O	15.826220	5.375635	13.761034
O	9.304415	7.472494	13.729361
O	13.761034	7.438784	13.763071
O	9.336087	1.181917	15.594992
O	13.729361	0.916979	15.859930
O	11.401274	3.245066	15.592955
O	15.857893	3.278776	15.626664
O	9.299925	5.106207	15.862382
O	13.763071	5.373598	15.826220
O	11.666212	7.239229	15.857893
O	15.590502	7.203066	15.590502
Ti	13.629583	1.148936	9.335359
Ti	9.335359	5.242147	9.536372
Ti	11.432218	7.439513	9.435865
Ti	15.826949	1.048429	11.432218
Ti	13.730090	3.245795	11.532724
Ti	11.532724	5.342654	11.633231
Ti	9.536372	0.947923	13.629583
Ti	11.633231	3.145288	13.730090
Ti	15.726442	7.238500	13.529077
Ti	9.435865	3.044782	15.826949
Ti	15.625935	5.141641	15.726442
Ti	13.529077	7.339006	15.625935
Zn	8.337380	-0.050055	8.337380
Zn	12.531098	4.243773	8.437491
Zn	10.534350	2.146914	10.534350
Zn	14.627957	6.340632	10.434239
Zn	12.631209	0.050055	12.531098
Zn	8.437491	4.143662	12.631209
Zn	14.728068	2.046803	14.627957
Zn	10.434239	6.240521	14.728068
O	11.664175	9.302378	1.148207
O	15.594992	9.336087	1.181917
O	9.535643	11.664175	0.914942
O	13.529805	11.399237	1.179880
O	11.396784	13.765523	1.184369
O	15.859930	13.729361	0.916979
O	9.569353	15.594992	0.948652
O	13.493643	15.862382	0.912490
O	9.302378	9.535643	3.276739
O	13.765523	9.571805	3.009348
O	11.668664	11.668664	3.281228
O	15.592955	11.401274	3.245066
O	9.567316	13.529805	3.011801
O	13.498133	13.496096	3.045511
O	11.632502	15.592955	3.013838
O	15.626664	15.857893	3.278776
O	11.399237	9.567316	5.142370
O	15.862382	9.299925	5.106207
O	9.571805	11.396784	5.378087
O	13.496096	11.432946	5.110697
O	11.432946	13.498133	5.108660
O	15.826220	13.763071	5.373598
O	9.304415	15.859930	5.341925
O	13.761034	15.826220	5.375635
O	9.336087	9.569353	7.207556
O	13.729361	9.304415	7.472494
O	11.401274	11.632502	7.205519
O	15.857893	11.666212	7.239229
O	9.299925	13.493643	7.474946
O	13.763071	13.761034	7.438784
O	11.666212	15.626664	7.470457
O	15.590502	15.590502	7.203066
Ti	13.629583	9.536372	0.947923
Ti	9.335359	13.629583	1.148936
Ti	11.432218	15.826949	1.048429
Ti	15.826949	9.435865	3.044782
Ti	13.730090	11.633231	3.145288
Ti	11.532724	13.730090	3.245795
Ti	9.536372	9.335359	5.242147
Ti	11.633231	11.532724	5.342654
Ti	15.726442	15.625935	5.141641
Ti	9.435865	11.432218	7.439513
Ti	15.625935	13.529077	7.339006
Ti	13.529077	15.726442	7.238500
Zn	8.337380	8.337380	-0.050055
Zn	12.531098	12.631209	0.050055
Zn	10.534350	10.534350	2.146914
Zn	14.627957	14.728068	2.046803
Zn	12.631209	8.437491	4.143662
Zn	8.437491	12.531098	4.243773
Zn	14.728068	10.434239	6.240521
Zn	10.434239	14.627957	6.340632
O	11.664175	9.302378	9.535643
O	15.594992	9.336087	9.569353
O	9.535643	11.664175	9.302378
O	13.529805	11.399237	9.567316
O	11.396784	13.765523	9.571805
O	15.859930	13.729361	9.304415
O	9.569353	15.594992	9.336087
O	13.493643	15.862382	9.299925
O	9.302378	9.535643	11.664175
O	13.765523	9.571805	11.396784
O	11.668664	11.668664	11.668664
O	15.592955	11.401274	11.632502
O	9.567316	13.529805	11.399237
O	13.498133	13.496096	11.432946
O	11.632502	15.592955	11.401274
O	15.626664	15.857893	11.666212
O	11.399237	9.567316	13.529805
O	15.862382	9.299925	13.493643
O	9.571805	11.396784	13.765523
O	13.496096	11.432946	13.498133
O	11.432946	13.498133	13.496096
O	15.826220	13.763071	13.761034
O	9.304415	15.859930	13.729361
O	13.761034	15.826220	13.763071
O	9.336087	9.569353	15.594992
O	13.729361	9.304415	15.859930
O	11.401274	11.632502	15.592955
O	15.857893	11.666212	15.626664
O	9.299925	13.493643	15.862382
O	13.763071	13.761034	15.826220
O	11.666212	15.626664	15.857893
O	15.590502	15.590502	15.590502
Ti	13.629583	9.536372	9.335359
Ti	9.335359	13.629583	9.536372
Ti	11.432218	15.826949	9.435865
Ti	15.826949	9.435865	11.432218
Ti	13.730090	11.633231	11.532724
Ti	11.532724	13.730090	11.633231
Ti	9.536372	9.335359	13.629583
Ti	11.633231	11.532724	13.730090
Ti	15.726442	15.625935	13.529077
Ti	9.435865	11.432218	15.826949
Ti	15.625935	13.529077	15.726442
Ti	13.529077	15.726442	15.625935
Zn	8.337380	8.337380	8.337380
Zn	12.531098	12.631209	8.437491
Zn	10.534350	10.534350	10.534350
Zn	14.627957	14.728068	10.434239
Zn	12.631209	8.437491	12.531098
Zn	8.437491	12.531098	12.631209
Zn	14.728068	10.434239	14.627957
Zn	10.434239	14.627957	14.728068
