40

As	1.987650	1.987650	1.987650
O	0.000000	1.987650	1.987650
O	1.987650	0.000000	1.987650
O	1.987650	1.987650	0.000000
Sr	0.000000	0.000000	0.000000
As	1.987650	1.987650	5.962949
O	0.000000	1.987650	5.962949
O	1.987650	0.000000	5.962949
O	1.987650	1.987650	3.975299
Sr	0.000000	0.000000	3.975299
As	1.987650	5.962949	1.987650
O	0.000000	5.962949	1.987650
O	1.987650	3.975299	1.987650
O	1.987650	5.962949	0.000000
Sr	0.000000	3.975299	0.000000
As	1.987650	5.962949	5.962949
O	0.000000	5.962949	5.962949
O	1.987650	3.975299	5.962949
O	1.987650	5.962949	3.975299
Sr	0.000000	3.975299	3.975299
As	5.962949	1.987650	1.987650
O	3.975299	1.987650	1.987650
O	5.962949	0.000000	1.987650
O	5.962949	1.987650	0.000000
Sr	3.975299	0.000000	0.000000
As	5.962949	1.987650	5.962949
O	3.975299	1.987650	5.962949
O	5.962949	0.000000	5.962949
O	5.962949	1.987650	3.975299
Sr	3.975299	0.000000	3.975299
As	5.962949	5.962949	1.987650
O	3.975299	5.962949	1.987650
O	5.962949	3.975299	1.987650
O	5.962949	5.962949	0.000000
Sr	3.975299	3.975299	0.000000
As	5.962949	5.962949	5.962949
O	3.975299	5.962949	5.962949
O	5.962949	3.975299	5.962949
O	5.962949	5.962949	3.975299
Sr	3.975299	3.975299	3.975299
