40

As	0.000000	0.000000	0.000000
O	2.194010	0.000000	2.194010
O	0.000000	2.194010	2.194010
O	2.194010	2.194010	0.000000
Sr_sv	2.194010	2.194010	2.194010
As	0.000000	0.000000	4.388027
O	2.194010	0.000000	6.582037
O	0.000000	2.194010	6.582037
O	2.194010	2.194010	4.388027
Sr_sv	2.194010	2.194010	6.582037
As	0.000000	4.388027	0.000000
O	2.194010	4.388027	2.194010
O	0.000000	6.582037	2.194010
O	2.194010	6.582037	0.000000
Sr_sv	2.194010	6.582037	2.194010
As	0.000000	4.388027	4.388027
O	2.194010	4.388027	6.582037
O	0.000000	6.582037	6.582037
O	2.194010	6.582037	4.388027
Sr_sv	2.194010	6.582037	6.582037
As	4.388027	0.000000	0.000000
O	6.582037	0.000000	2.194010
O	4.388027	2.194010	2.194010
O	6.582037	2.194010	0.000000
Sr_sv	6.582037	2.194010	2.194010
As	4.388027	0.000000	4.388027
O	6.582037	0.000000	6.582037
O	4.388027	2.194010	6.582037
O	6.582037	2.194010	4.388027
Sr_sv	6.582037	2.194010	6.582037
As	4.388027	4.388027	0.000000
O	6.582037	4.388027	2.194010
O	4.388027	6.582037	2.194010
O	6.582037	6.582037	0.000000
Sr_sv	6.582037	6.582037	2.194010
As	4.388027	4.388027	4.388027
O	6.582037	4.388027	6.582037
O	4.388027	6.582037	6.582037
O	6.582037	6.582037	4.388027
Sr_sv	6.582037	6.582037	6.582037
