112

Al	4.339104	4.175305	2.952386
Al	5.785471	3.340244	0.590477
Al	5.785471	1.670122	2.952386
Al	7.231839	4.175305	2.952386
Co	0.000000	0.000000	0.000000
Co	2.892736	1.670122	1.180955
O	7.064096	2.602029	1.839913
O	9.956832	5.748580	4.064860
O	5.785472	4.816673	1.839913
O	5.785472	3.340244	3.927899
O	8.678207	5.010366	1.976874
O	8.678207	3.533937	4.064860
O	4.506847	2.602029	1.839913
O	7.399582	5.748580	4.064860
Al	7.231839	5.845427	7.676205
Al	8.678207	5.010366	5.314296
Al	8.678207	3.340244	7.676205
Al	10.124575	5.845427	7.676205
Co	2.892736	1.670122	4.723818
Co	5.785471	3.340244	5.904773
O	9.956832	4.272151	6.563731
O	12.849568	7.418702	8.788678
O	8.678207	6.486795	6.563731
O	8.678207	5.010366	8.651717
O	11.570943	6.680488	6.700693
O	11.570943	5.204059	8.788678
O	7.399582	4.272151	6.563731
O	10.292318	7.418702	8.788678
Al	7.231839	9.185671	2.952386
Al	8.678207	8.350610	0.590477
Al	8.678207	6.680488	2.952386
Al	10.124575	9.185671	2.952386
Co	2.892736	5.010366	0.000000
Co	5.785471	6.680488	1.180955
O	9.956832	7.612396	1.839913
O	12.849568	10.758947	4.064860
O	8.678207	9.827039	1.839913
O	8.678207	8.350610	3.927899
O	11.570943	10.020732	1.976874
O	11.570943	8.544303	4.064860
O	7.399582	7.612396	1.839913
O	10.292318	10.758947	4.064860
Al	10.124575	10.855793	7.676205
Al	11.570943	10.020732	5.314296
Al	11.570943	8.350610	7.676205
Al	13.017311	10.855793	7.676205
Co	5.785471	6.680488	4.723818
Co	8.678207	8.350610	5.904773
O	12.849568	9.282517	6.563731
O	15.742304	12.429068	8.788678
O	11.570943	11.497161	6.563731
O	11.570943	10.020732	8.651717
O	14.463679	11.690854	6.700693
O	14.463679	10.214425	8.788678
O	10.292318	9.282517	6.563731
O	13.185054	12.429068	8.788678
Al	10.124575	4.175305	2.952386
Al	11.570943	3.340244	0.590477
Al	11.570943	1.670122	2.952386
Al	13.017311	4.175305	2.952386
Co	5.785471	0.000000	0.000000
Co	8.678207	1.670122	1.180955
O	12.849568	2.602029	1.839913
O	15.742304	5.748580	4.064860
O	11.570943	4.816673	1.839913
O	11.570943	3.340244	3.927899
O	14.463679	5.010366	1.976874
O	14.463679	3.533937	4.064860
O	10.292318	2.602029	1.839913
O	13.185054	5.748580	4.064860
Al	13.017311	5.845427	7.676205
Al	14.463679	5.010366	5.314296
Al	14.463679	3.340244	7.676205
Al	15.910047	5.845427	7.676205
Co	8.678207	1.670122	4.723818
Co	11.570943	3.340244	5.904773
O	15.742304	4.272151	6.563731
O	18.635039	7.418702	8.788678
O	14.463679	6.486795	6.563731
O	14.463679	5.010366	8.651717
O	17.356414	6.680488	6.700693
O	17.356414	5.204059	8.788678
O	13.185054	4.272151	6.563731
O	16.077790	7.418702	8.788678
Al	13.017311	9.185671	2.952386
Al	14.463679	8.350610	0.590477
Al	14.463679	6.680488	2.952386
Al	15.910047	9.185671	2.952386
Co	8.678207	5.010366	0.000000
Co	11.570943	6.680488	1.180955
O	15.742304	7.612396	1.839913
O	18.635039	10.758947	4.064860
O	14.463679	9.827039	1.839913
O	14.463679	8.350610	3.927899
O	17.356414	10.020732	1.976874
O	17.356414	8.544303	4.064860
O	13.185054	7.612396	1.839913
O	16.077790	10.758947	4.064860
Al	15.910047	10.855793	7.676205
Al	17.356414	10.020732	5.314296
Al	17.356414	8.350610	7.676205
Al	18.802782	10.855793	7.676205
Co	11.570943	6.680488	4.723818
Co	14.463679	8.350610	5.904773
O	18.635039	9.282517	6.563731
O	21.527775	12.429068	8.788678
O	17.356414	11.497161	6.563731
O	17.356414	10.020732	8.651717
O	20.249150	11.690854	6.700693
O	20.249150	10.214425	8.788678
O	16.077790	9.282517	6.563731
O	18.970525	12.429068	8.788678
