40

O	2.109010	2.109010	0.000000
O	0.000000	2.109010	2.109010
O	2.109010	0.000000	2.109010
Sb	2.109010	2.109010	2.109010
Sm	0.000000	0.000000	0.000000
O	2.109010	2.109010	4.218024
O	0.000000	2.109010	6.327034
O	2.109010	0.000000	6.327034
Sb	2.109010	2.109010	6.327034
Sm	0.000000	0.000000	4.218024
O	2.109010	6.327034	0.000000
O	0.000000	6.327034	2.109010
O	2.109010	4.218024	2.109010
Sb	2.109010	6.327034	2.109010
Sm	0.000000	4.218024	0.000000
O	2.109010	6.327034	4.218024
O	0.000000	6.327034	6.327034
O	2.109010	4.218024	6.327034
Sb	2.109010	6.327034	6.327034
Sm	0.000000	4.218024	4.218024
O	6.327034	2.109010	0.000000
O	4.218024	2.109010	2.109010
O	6.327034	0.000000	2.109010
Sb	6.327034	2.109010	2.109010
Sm	4.218024	0.000000	0.000000
O	6.327034	2.109010	4.218024
O	4.218024	2.109010	6.327034
O	6.327034	0.000000	6.327034
Sb	6.327034	2.109010	6.327034
Sm	4.218024	0.000000	4.218024
O	6.327034	6.327034	0.000000
O	4.218024	6.327034	2.109010
O	6.327034	4.218024	2.109010
Sb	6.327034	6.327034	2.109010
Sm	4.218024	4.218024	0.000000
O	6.327034	6.327034	4.218024
O	4.218024	6.327034	6.327034
O	6.327034	4.218024	6.327034
Sb	6.327034	6.327034	6.327034
Sm	4.218024	4.218024	4.218024
