112

Mo	0.000000	0.000000	0.000000
Mo	2.380119	-2.380825	-2.380825
O	3.661667	-1.098402	-1.098402
O	-1.098571	1.098402	-3.663248
O	1.098571	-1.098402	-3.663248
O	1.281548	1.282423	-1.282423
O	5.858810	1.098402	-1.098402
O	1.281548	3.479228	-3.479228
O	3.478691	3.479228	-1.282423
O	3.478691	1.282423	-3.479228
Tb	-1.190060	-1.190413	-3.571238
Tb	3.570179	1.190413	-1.190413
Tb	5.950298	-1.190413	-1.190413
Tb	1.190060	1.190413	-3.571238
Mo	4.760239	4.761651	0.000000
Mo	7.140358	2.380825	-2.380825
O	8.421906	3.663248	-1.098402
O	3.661667	5.860053	-3.663248
O	5.858810	3.663248	-3.663248
O	6.041787	6.044074	-1.282423
O	10.619049	5.860053	-1.098402
O	6.041787	8.240878	-3.479228
O	8.238929	8.240878	-1.282423
O	8.238929	6.044074	-3.479228
Tb	3.570179	3.571238	-3.571238
Tb	8.330418	5.952063	-1.190413
Tb	10.710537	3.571238	-1.190413
Tb	5.950298	5.952063	-3.571238
Mo	-4.760239	0.000000	-4.761651
Mo	-2.380119	-2.380825	-7.142476
O	-1.098571	-1.098402	-5.860053
O	-5.858810	1.098402	-8.424899
O	-3.661667	-1.098402	-8.424899
O	-3.478691	1.282423	-6.044074
O	1.098571	1.098402	-5.860053
O	-3.478691	3.479228	-8.240878
O	-1.281548	3.479228	-6.044074
O	-1.281548	1.282423	-8.240878
Tb	-5.950298	-1.190413	-8.332889
Tb	-1.190060	1.190413	-5.952063
Tb	1.190060	-1.190413	-5.952063
Tb	-3.570179	1.190413	-8.332889
Mo	0.000000	4.761651	-4.761651
Mo	2.380119	2.380825	-7.142476
O	3.661667	3.663248	-5.860053
O	-1.098571	5.860053	-8.424899
O	1.098571	3.663248	-8.424899
O	1.281548	6.044074	-6.044074
O	5.858810	5.860053	-5.860053
O	1.281548	8.240878	-8.240878
O	3.478691	8.240878	-6.044074
O	3.478691	6.044074	-8.240878
Tb	-1.190060	3.571238	-8.332889
Tb	3.570179	5.952063	-5.952063
Tb	5.950298	3.571238	-5.952063
Tb	1.190060	5.952063	-8.332889
Mo	4.760239	-4.761651	0.000000
Mo	7.140358	-7.142476	-2.380825
O	8.421906	-5.860053	-1.098402
O	3.661667	-3.663248	-3.663248
O	5.858810	-5.860053	-3.663248
O	6.041787	-3.479228	-1.282423
O	10.619049	-3.663248	-1.098402
O	6.041787	-1.282423	-3.479228
O	8.238929	-1.282423	-1.282423
O	8.238929	-3.479228	-3.479228
Tb	3.570179	-5.952063	-3.571238
Tb	8.330418	-3.571238	-1.190413
Tb	10.710537	-5.952063	-1.190413
Tb	5.950298	-3.571238	-3.571238
Mo	9.520477	0.000000	0.000000
Mo	11.900597	-2.380825	-2.380825
O	13.182145	-1.098402	-1.098402
O	8.421906	1.098402	-3.663248
O	10.619049	-1.098402	-3.663248
O	10.802025	1.282423	-1.282423
O	15.379287	1.098402	-1.098402
O	10.802025	3.479228	-3.479228
O	12.999168	3.479228	-1.282423
O	12.999168	1.282423	-3.479228
Tb	8.330418	-1.190413	-3.571238
Tb	13.090656	1.190413	-1.190413
Tb	15.470776	-1.190413	-1.190413
Tb	10.710537	1.190413	-3.571238
Mo	0.000000	-4.761651	-4.761651
Mo	2.380119	-7.142476	-7.142476
O	3.661667	-5.860053	-5.860053
O	-1.098571	-3.663248	-8.424899
O	1.098571	-5.860053	-8.424899
O	1.281548	-3.479228	-6.044074
O	5.858810	-3.663248	-5.860053
O	1.281548	-1.282423	-8.240878
O	3.478691	-1.282423	-6.044074
O	3.478691	-3.479228	-8.240878
Tb	-1.190060	-5.952063	-8.332889
Tb	3.570179	-3.571238	-5.952063
Tb	5.950298	-5.952063	-5.952063
Tb	1.190060	-3.571238	-8.332889
Mo	4.760239	0.000000	-4.761651
Mo	7.140358	-2.380825	-7.142476
O	8.421906	-1.098402	-5.860053
O	3.661667	1.098402	-8.424899
O	5.858810	-1.098402	-8.424899
O	6.041787	1.282423	-6.044074
O	10.619049	1.098402	-5.860053
O	6.041787	3.479228	-8.240878
O	8.238929	3.479228	-6.044074
O	8.238929	1.282423	-8.240878
Tb	3.570179	-1.190413	-8.332889
Tb	8.330418	1.190413	-5.952063
Tb	10.710537	-1.190413	-5.952063
Tb	5.950298	1.190413	-8.332889
