40

Be	1.740147	1.740147	1.740147
Co	0.000000	0.000000	0.000000
O	1.740147	1.740147	0.000000
O	1.740147	0.000000	1.740147
O	0.000000	1.740147	1.740147
Be	1.740147	1.740147	5.220441
Co	0.000000	0.000000	3.480294
O	1.740147	1.740147	3.480294
O	1.740147	0.000000	5.220441
O	0.000000	1.740147	5.220441
Be	1.740147	5.220441	1.740147
Co	0.000000	3.480294	0.000000
O	1.740147	5.220441	0.000000
O	1.740147	3.480294	1.740147
O	0.000000	5.220441	1.740147
Be	1.740147	5.220441	5.220441
Co	0.000000	3.480294	3.480294
O	1.740147	5.220441	3.480294
O	1.740147	3.480294	5.220441
O	0.000000	5.220441	5.220441
Be	5.220441	1.740147	1.740147
Co	3.480294	0.000000	0.000000
O	5.220441	1.740147	0.000000
O	5.220441	0.000000	1.740147
O	3.480294	1.740147	1.740147
Be	5.220441	1.740147	5.220441
Co	3.480294	0.000000	3.480294
O	5.220441	1.740147	3.480294
O	5.220441	0.000000	5.220441
O	3.480294	1.740147	5.220441
Be	5.220441	5.220441	1.740147
Co	3.480294	3.480294	0.000000
O	5.220441	5.220441	0.000000
O	5.220441	3.480294	1.740147
O	3.480294	5.220441	1.740147
Be	5.220441	5.220441	5.220441
Co	3.480294	3.480294	3.480294
O	5.220441	5.220441	3.480294
O	5.220441	3.480294	5.220441
O	3.480294	5.220441	5.220441
