40

Ce	2.288948	2.288948	2.288948
O	2.288948	2.288948	0.000000
O	2.288948	0.000000	2.288948
O	0.000000	2.288948	2.288948
Pm	0.000000	0.000000	0.000000
Ce	2.288948	2.288948	6.866844
O	2.288948	2.288948	4.577896
O	2.288948	0.000000	6.866844
O	0.000000	2.288948	6.866844
Pm	0.000000	0.000000	4.577896
Ce	2.288948	6.866844	2.288948
O	2.288948	6.866844	0.000000
O	2.288948	4.577896	2.288948
O	0.000000	6.866844	2.288948
Pm	0.000000	4.577896	0.000000
Ce	2.288948	6.866844	6.866844
O	2.288948	6.866844	4.577896
O	2.288948	4.577896	6.866844
O	0.000000	6.866844	6.866844
Pm	0.000000	4.577896	4.577896
Ce	6.866844	2.288948	2.288948
O	6.866844	2.288948	0.000000
O	6.866844	0.000000	2.288948
O	4.577896	2.288948	2.288948
Pm	4.577896	0.000000	0.000000
Ce	6.866844	2.288948	6.866844
O	6.866844	2.288948	4.577896
O	6.866844	0.000000	6.866844
O	4.577896	2.288948	6.866844
Pm	4.577896	0.000000	4.577896
Ce	6.866844	6.866844	2.288948
O	6.866844	6.866844	0.000000
O	6.866844	4.577896	2.288948
O	4.577896	6.866844	2.288948
Pm	4.577896	4.577896	0.000000
Ce	6.866844	6.866844	6.866844
O	6.866844	6.866844	4.577896
O	6.866844	4.577896	6.866844
O	4.577896	6.866844	6.866844
Pm	4.577896	4.577896	4.577896
