40

Ce	2.265320	2.265320	2.265320
O	2.265320	2.265320	0.000000
O	0.000000	2.265320	2.265320
O	2.265320	0.000000	2.265320
Pm	0.000000	0.000000	0.000000
Ce	2.265320	2.265320	6.795957
O	2.265320	2.265320	4.530637
O	0.000000	2.265320	6.795957
O	2.265320	0.000000	6.795957
Pm	0.000000	0.000000	4.530637
Ce	2.265320	6.795957	2.265320
O	2.265320	6.795957	0.000000
O	0.000000	6.795957	2.265320
O	2.265320	4.530637	2.265320
Pm	0.000000	4.530637	0.000000
Ce	2.265320	6.795957	6.795957
O	2.265320	6.795957	4.530637
O	0.000000	6.795957	6.795957
O	2.265320	4.530637	6.795957
Pm	0.000000	4.530637	4.530637
Ce	6.795957	2.265320	2.265320
O	6.795957	2.265320	0.000000
O	4.530637	2.265320	2.265320
O	6.795957	0.000000	2.265320
Pm	4.530637	0.000000	0.000000
Ce	6.795957	2.265320	6.795957
O	6.795957	2.265320	4.530637
O	4.530637	2.265320	6.795957
O	6.795957	0.000000	6.795957
Pm	4.530637	0.000000	4.530637
Ce	6.795957	6.795957	2.265320
O	6.795957	6.795957	0.000000
O	4.530637	6.795957	2.265320
O	6.795957	4.530637	2.265320
Pm	4.530637	4.530637	0.000000
Ce	6.795957	6.795957	6.795957
O	6.795957	6.795957	4.530637
O	4.530637	6.795957	6.795957
O	6.795957	4.530637	6.795957
Pm	4.530637	4.530637	4.530637
