40

Bi	0.000000	0.000000	0.000000
Mo	2.007880	2.007880	2.007880
O	2.007880	0.000000	2.007880
O	0.000000	2.007880	2.007880
O	2.007880	2.007880	0.000000
Bi	0.000000	0.000000	4.015759
Mo	2.007880	2.007880	6.023639
O	2.007880	0.000000	6.023639
O	0.000000	2.007880	6.023639
O	2.007880	2.007880	4.015759
Bi	0.000000	4.015759	0.000000
Mo	2.007880	6.023639	2.007880
O	2.007880	4.015759	2.007880
O	0.000000	6.023639	2.007880
O	2.007880	6.023639	0.000000
Bi	0.000000	4.015759	4.015759
Mo	2.007880	6.023639	6.023639
O	2.007880	4.015759	6.023639
O	0.000000	6.023639	6.023639
O	2.007880	6.023639	4.015759
Bi	4.015759	0.000000	0.000000
Mo	6.023639	2.007880	2.007880
O	6.023639	0.000000	2.007880
O	4.015759	2.007880	2.007880
O	6.023639	2.007880	0.000000
Bi	4.015759	0.000000	4.015759
Mo	6.023639	2.007880	6.023639
O	6.023639	0.000000	6.023639
O	4.015759	2.007880	6.023639
O	6.023639	2.007880	4.015759
Bi	4.015759	4.015759	0.000000
Mo	6.023639	6.023639	2.007880
O	6.023639	4.015759	2.007880
O	4.015759	6.023639	2.007880
O	6.023639	6.023639	0.000000
Bi	4.015759	4.015759	4.015759
Mo	6.023639	6.023639	6.023639
O	6.023639	4.015759	6.023639
O	4.015759	6.023639	6.023639
O	6.023639	6.023639	4.015759
