112

O	3.637649	-0.967183	-0.967183
O	-0.967557	0.967183	-3.639269
O	0.967557	-0.967183	-3.639269
O	1.335046	1.336043	-1.336043
O	5.572763	0.967183	-0.967183
O	1.335046	3.270409	-3.270409
O	3.270160	3.270409	-1.336043
O	3.270160	1.336043	-3.270409
Pu	0.000000	0.000000	0.000000
Pu	2.302603	-2.303226	-2.303226
Ta	-1.151302	-1.151613	-3.454839
Ta	3.453905	1.151613	-1.151613
Ta	5.756508	-1.151613	-1.151613
Ta	1.151302	1.151613	-3.454839
O	8.242856	3.639269	-0.967183
O	3.637649	5.573635	-3.639269
O	5.572763	3.639269	-3.639269
O	5.940252	5.942496	-1.336043
O	10.177969	5.573635	-0.967183
O	5.940252	7.876861	-3.270409
O	7.875366	7.876861	-1.336043
O	7.875366	5.942496	-3.270409
Pu	4.605206	4.606452	0.000000
Pu	6.907809	2.303226	-2.303226
Ta	3.453905	3.454839	-3.454839
Ta	8.059111	5.758065	-1.151613
Ta	10.361714	3.454839	-1.151613
Ta	5.756508	5.758065	-3.454839
O	-0.967557	-0.967183	-5.573635
O	-5.572763	0.967183	-8.245722
O	-3.637649	-0.967183	-8.245722
O	-3.270160	1.336043	-5.942496
O	0.967557	0.967183	-5.573635
O	-3.270160	3.270409	-7.876861
O	-1.335046	3.270409	-5.942496
O	-1.335046	1.336043	-7.876861
Pu	-4.605206	0.000000	-4.606452
Pu	-2.302603	-2.303226	-6.909678
Ta	-5.756508	-1.151613	-8.061292
Ta	-1.151302	1.151613	-5.758065
Ta	1.151302	-1.151613	-5.758065
Ta	-3.453905	1.151613	-8.061292
O	3.637649	3.639269	-5.573635
O	-0.967557	5.573635	-8.245722
O	0.967557	3.639269	-8.245722
O	1.335046	5.942496	-5.942496
O	5.572763	5.573635	-5.573635
O	1.335046	7.876861	-7.876861
O	3.270160	7.876861	-5.942496
O	3.270160	5.942496	-7.876861
Pu	0.000000	4.606452	-4.606452
Pu	2.302603	2.303226	-6.909678
Ta	-1.151302	3.454839	-8.061292
Ta	3.453905	5.758065	-5.758065
Ta	5.756508	3.454839	-5.758065
Ta	1.151302	5.758065	-8.061292
O	8.242856	-5.573635	-0.967183
O	3.637649	-3.639269	-3.639269
O	5.572763	-5.573635	-3.639269
O	5.940252	-3.270409	-1.336043
O	10.177969	-3.639269	-0.967183
O	5.940252	-1.336043	-3.270409
O	7.875366	-1.336043	-1.336043
O	7.875366	-3.270409	-3.270409
Pu	4.605206	-4.606452	0.000000
Pu	6.907809	-6.909678	-2.303226
Ta	3.453905	-5.758065	-3.454839
Ta	8.059111	-3.454839	-1.151613
Ta	10.361714	-5.758065	-1.151613
Ta	5.756508	-3.454839	-3.454839
O	12.848062	-0.967183	-0.967183
O	8.242856	0.967183	-3.639269
O	10.177969	-0.967183	-3.639269
O	10.545459	1.336043	-1.336043
O	14.783176	0.967183	-0.967183
O	10.545459	3.270409	-3.270409
O	12.480572	3.270409	-1.336043
O	12.480572	1.336043	-3.270409
Pu	9.210412	0.000000	0.000000
Pu	11.513016	-2.303226	-2.303226
Ta	8.059111	-1.151613	-3.454839
Ta	12.664317	1.151613	-1.151613
Ta	14.966920	-1.151613	-1.151613
Ta	10.361714	1.151613	-3.454839
O	3.637649	-5.573635	-5.573635
O	-0.967557	-3.639269	-8.245722
O	0.967557	-5.573635	-8.245722
O	1.335046	-3.270409	-5.942496
O	5.572763	-3.639269	-5.573635
O	1.335046	-1.336043	-7.876861
O	3.270160	-1.336043	-5.942496
O	3.270160	-3.270409	-7.876861
Pu	0.000000	-4.606452	-4.606452
Pu	2.302603	-6.909678	-6.909678
Ta	-1.151302	-5.758065	-8.061292
Ta	3.453905	-3.454839	-5.758065
Ta	5.756508	-5.758065	-5.758065
Ta	1.151302	-3.454839	-8.061292
O	8.242856	-0.967183	-5.573635
O	3.637649	0.967183	-8.245722
O	5.572763	-0.967183	-8.245722
O	5.940252	1.336043	-5.942496
O	10.177969	0.967183	-5.573635
O	5.940252	3.270409	-7.876861
O	7.875366	3.270409	-5.942496
O	7.875366	1.336043	-7.876861
Pu	4.605206	0.000000	-4.606452
Pu	6.907809	-2.303226	-6.909678
Ta	3.453905	-1.151613	-8.061292
Ta	8.059111	1.151613	-5.758065
Ta	10.361714	-1.151613	-5.758065
Ta	5.756508	1.151613	-8.061292
