40

Dy	2.177343	2.177343	2.177343
Ga	0.000000	0.000000	0.000000
O	2.177343	2.177343	0.000000
O	2.177343	0.000000	2.177343
O	0.000000	2.177343	2.177343
Dy	2.177343	2.177343	6.532033
Ga	0.000000	0.000000	4.354690
O	2.177343	2.177343	4.354690
O	2.177343	0.000000	6.532033
O	0.000000	2.177343	6.532033
Dy	2.177343	6.532033	2.177343
Ga	0.000000	4.354690	0.000000
O	2.177343	6.532033	0.000000
O	2.177343	4.354690	2.177343
O	0.000000	6.532033	2.177343
Dy	2.177343	6.532033	6.532033
Ga	0.000000	4.354690	4.354690
O	2.177343	6.532033	4.354690
O	2.177343	4.354690	6.532033
O	0.000000	6.532033	6.532033
Dy	6.532033	2.177343	2.177343
Ga	4.354690	0.000000	0.000000
O	6.532033	2.177343	0.000000
O	6.532033	0.000000	2.177343
O	4.354690	2.177343	2.177343
Dy	6.532033	2.177343	6.532033
Ga	4.354690	0.000000	4.354690
O	6.532033	2.177343	4.354690
O	6.532033	0.000000	6.532033
O	4.354690	2.177343	6.532033
Dy	6.532033	6.532033	2.177343
Ga	4.354690	4.354690	0.000000
O	6.532033	6.532033	0.000000
O	6.532033	4.354690	2.177343
O	4.354690	6.532033	2.177343
Dy	6.532033	6.532033	6.532033
Ga	4.354690	4.354690	4.354690
O	6.532033	6.532033	4.354690
O	6.532033	4.354690	6.532033
O	4.354690	6.532033	6.532033
