40

Bi	0.000000	0.000000	0.000000
Lu	2.117406	2.117406	2.117406
O	2.117406	2.117406	0.000000
O	2.117406	0.000000	2.117406
O	0.000000	2.117406	2.117406
Bi	0.000000	0.000000	4.234812
Lu	2.117406	2.117406	6.352218
O	2.117406	2.117406	4.234812
O	2.117406	0.000000	6.352218
O	0.000000	2.117406	6.352218
Bi	0.000000	4.234812	0.000000
Lu	2.117406	6.352218	2.117406
O	2.117406	6.352218	0.000000
O	2.117406	4.234812	2.117406
O	0.000000	6.352218	2.117406
Bi	0.000000	4.234812	4.234812
Lu	2.117406	6.352218	6.352218
O	2.117406	6.352218	4.234812
O	2.117406	4.234812	6.352218
O	0.000000	6.352218	6.352218
Bi	4.234812	0.000000	0.000000
Lu	6.352218	2.117406	2.117406
O	6.352218	2.117406	0.000000
O	6.352218	0.000000	2.117406
O	4.234812	2.117406	2.117406
Bi	4.234812	0.000000	4.234812
Lu	6.352218	2.117406	6.352218
O	6.352218	2.117406	4.234812
O	6.352218	0.000000	6.352218
O	4.234812	2.117406	6.352218
Bi	4.234812	4.234812	0.000000
Lu	6.352218	6.352218	2.117406
O	6.352218	6.352218	0.000000
O	6.352218	4.234812	2.117406
O	4.234812	6.352218	2.117406
Bi	4.234812	4.234812	4.234812
Lu	6.352218	6.352218	6.352218
O	6.352218	6.352218	4.234812
O	6.352218	4.234812	6.352218
O	4.234812	6.352218	6.352218
