40

Er	2.148813	2.148813	2.148813
O	2.148813	2.148813	0.000000
O	2.148813	0.000000	2.148813
O	0.000000	2.148813	2.148813
Th	0.000000	0.000000	0.000000
Er	2.148813	2.148813	6.446439
O	2.148813	2.148813	4.297626
O	2.148813	0.000000	6.446439
O	0.000000	2.148813	6.446439
Th	0.000000	0.000000	4.297626
Er	2.148813	6.446439	2.148813
O	2.148813	6.446439	0.000000
O	2.148813	4.297626	2.148813
O	0.000000	6.446439	2.148813
Th	0.000000	4.297626	0.000000
Er	2.148813	6.446439	6.446439
O	2.148813	6.446439	4.297626
O	2.148813	4.297626	6.446439
O	0.000000	6.446439	6.446439
Th	0.000000	4.297626	4.297626
Er	6.446439	2.148813	2.148813
O	6.446439	2.148813	0.000000
O	6.446439	0.000000	2.148813
O	4.297626	2.148813	2.148813
Th	4.297626	0.000000	0.000000
Er	6.446439	2.148813	6.446439
O	6.446439	2.148813	4.297626
O	6.446439	0.000000	6.446439
O	4.297626	2.148813	6.446439
Th	4.297626	0.000000	4.297626
Er	6.446439	6.446439	2.148813
O	6.446439	6.446439	0.000000
O	6.446439	4.297626	2.148813
O	4.297626	6.446439	2.148813
Th	4.297626	4.297626	0.000000
Er	6.446439	6.446439	6.446439
O	6.446439	6.446439	4.297626
O	6.446439	4.297626	6.446439
O	4.297626	6.446439	6.446439
Th	4.297626	4.297626	4.297626
