112

Cu	0.000000	0.000000	0.000000
Cu	2.575289	-2.575945	-2.575945
O	3.585865	-1.564289	-1.564289
O	-1.564713	1.564289	-3.587602
O	1.564713	-1.564289	-3.587602
O	1.010576	1.011656	-1.011656
O	6.715292	1.564289	-1.564289
O	1.010576	4.140234	-4.140234
O	4.140003	4.140234	-1.011656
O	4.140003	1.011656	-4.140234
Rb	-1.287645	-1.287973	-3.863918
Rb	3.862934	1.287973	-1.287973
Rb	6.438224	-1.287973	-1.287973
Rb	1.287645	1.287973	-3.863918
Cu	5.150579	5.151891	0.000000
Cu	7.725868	2.575945	-2.575945
O	8.736444	3.587602	-1.564289
O	3.585865	6.716180	-3.587602
O	6.715292	3.587602	-3.587602
O	6.161155	6.163547	-1.011656
O	11.865871	6.716180	-1.564289
O	6.161155	9.292125	-4.140234
O	9.290582	9.292125	-1.011656
O	9.290582	6.163547	-4.140234
Rb	3.862934	3.863918	-3.863918
Rb	9.013513	6.439863	-1.287973
Rb	11.588802	3.863918	-1.287973
Rb	6.438224	6.439863	-3.863918
Cu	-5.150579	0.000000	-5.151891
Cu	-2.575289	-2.575945	-7.727836
O	-1.564713	-1.564289	-6.716180
O	-6.715292	1.564289	-8.739492
O	-3.585865	-1.564289	-8.739492
O	-4.140003	1.011656	-6.163547
O	1.564713	1.564289	-6.716180
O	-4.140003	4.140234	-9.292125
O	-1.010576	4.140234	-6.163547
O	-1.010576	1.011656	-9.292125
Rb	-6.438224	-1.287973	-9.015809
Rb	-1.287645	1.287973	-6.439863
Rb	1.287645	-1.287973	-6.439863
Rb	-3.862934	1.287973	-9.015809
Cu	0.000000	5.151891	-5.151891
Cu	2.575289	2.575945	-7.727836
O	3.585865	3.587602	-6.716180
O	-1.564713	6.716180	-8.739492
O	1.564713	3.587602	-8.739492
O	1.010576	6.163547	-6.163547
O	6.715292	6.716180	-6.716180
O	1.010576	9.292125	-9.292125
O	4.140003	9.292125	-6.163547
O	4.140003	6.163547	-9.292125
Rb	-1.287645	3.863918	-9.015809
Rb	3.862934	6.439863	-6.439863
Rb	6.438224	3.863918	-6.439863
Rb	1.287645	6.439863	-9.015809
Cu	5.150579	-5.151891	0.000000
Cu	7.725868	-7.727836	-2.575945
O	8.736444	-6.716180	-1.564289
O	3.585865	-3.587602	-3.587602
O	6.715292	-6.716180	-3.587602
O	6.161155	-4.140234	-1.011656
O	11.865871	-3.587602	-1.564289
O	6.161155	-1.011656	-4.140234
O	9.290582	-1.011656	-1.011656
O	9.290582	-4.140234	-4.140234
Rb	3.862934	-6.439863	-3.863918
Rb	9.013513	-3.863918	-1.287973
Rb	11.588802	-6.439863	-1.287973
Rb	6.438224	-3.863918	-3.863918
Cu	10.301158	0.000000	0.000000
Cu	12.876447	-2.575945	-2.575945
O	13.887023	-1.564289	-1.564289
O	8.736444	1.564289	-3.587602
O	11.865871	-1.564289	-3.587602
O	11.311734	1.011656	-1.011656
O	17.016450	1.564289	-1.564289
O	11.311734	4.140234	-4.140234
O	14.441160	4.140234	-1.011656
O	14.441160	1.011656	-4.140234
Rb	9.013513	-1.287973	-3.863918
Rb	14.164092	1.287973	-1.287973
Rb	16.739381	-1.287973	-1.287973
Rb	11.588802	1.287973	-3.863918
Cu	0.000000	-5.151891	-5.151891
Cu	2.575289	-7.727836	-7.727836
O	3.585865	-6.716180	-6.716180
O	-1.564713	-3.587602	-8.739492
O	1.564713	-6.716180	-8.739492
O	1.010576	-4.140234	-6.163547
O	6.715292	-3.587602	-6.716180
O	1.010576	-1.011656	-9.292125
O	4.140003	-1.011656	-6.163547
O	4.140003	-4.140234	-9.292125
Rb	-1.287645	-6.439863	-9.015809
Rb	3.862934	-3.863918	-6.439863
Rb	6.438224	-6.439863	-6.439863
Rb	1.287645	-3.863918	-9.015809
Cu	5.150579	0.000000	-5.151891
Cu	7.725868	-2.575945	-7.727836
O	8.736444	-1.564289	-6.716180
O	3.585865	1.564289	-8.739492
O	6.715292	-1.564289	-8.739492
O	6.161155	1.011656	-6.163547
O	11.865871	1.564289	-6.716180
O	6.161155	4.140234	-9.292125
O	9.290582	4.140234	-6.163547
O	9.290582	1.011656	-9.292125
Rb	3.862934	-1.287973	-9.015809
Rb	9.013513	1.287973	-6.439863
Rb	11.588802	-1.287973	-6.439863
Rb	6.438224	1.287973	-9.015809
