40

As	1.949493	1.949493	1.949493
Hg	0.000000	0.000000	0.000000
O	1.949493	1.949493	0.000000
O	1.949493	0.000000	1.949493
O	0.000000	1.949493	1.949493
As	1.949493	1.949493	5.848479
Hg	0.000000	0.000000	3.898986
O	1.949493	1.949493	3.898986
O	1.949493	0.000000	5.848479
O	0.000000	1.949493	5.848479
As	1.949493	5.848479	1.949493
Hg	0.000000	3.898986	0.000000
O	1.949493	5.848479	0.000000
O	1.949493	3.898986	1.949493
O	0.000000	5.848479	1.949493
As	1.949493	5.848479	5.848479
Hg	0.000000	3.898986	3.898986
O	1.949493	5.848479	3.898986
O	1.949493	3.898986	5.848479
O	0.000000	5.848479	5.848479
As	5.848479	1.949493	1.949493
Hg	3.898986	0.000000	0.000000
O	5.848479	1.949493	0.000000
O	5.848479	0.000000	1.949493
O	3.898986	1.949493	1.949493
As	5.848479	1.949493	5.848479
Hg	3.898986	0.000000	3.898986
O	5.848479	1.949493	3.898986
O	5.848479	0.000000	5.848479
O	3.898986	1.949493	5.848479
As	5.848479	5.848479	1.949493
Hg	3.898986	3.898986	0.000000
O	5.848479	5.848479	0.000000
O	5.848479	3.898986	1.949493
O	3.898986	5.848479	1.949493
As	5.848479	5.848479	5.848479
Hg	3.898986	3.898986	3.898986
O	5.848479	5.848479	3.898986
O	5.848479	3.898986	5.848479
O	3.898986	5.848479	5.848479
