40

O	2.249650	2.249650	0.000000
O	0.000000	2.249650	2.249650
O	2.249650	0.000000	2.249650
Pa	2.249650	2.249650	2.249650
Sr_sv	0.000000	0.000000	0.000000
O	2.249650	2.249650	4.499307
O	0.000000	2.249650	6.748957
O	2.249650	0.000000	6.748957
Pa	2.249650	2.249650	6.748957
Sr_sv	0.000000	0.000000	4.499307
O	2.249650	6.748957	0.000000
O	0.000000	6.748957	2.249650
O	2.249650	4.499307	2.249650
Pa	2.249650	6.748957	2.249650
Sr_sv	0.000000	4.499307	0.000000
O	2.249650	6.748957	4.499307
O	0.000000	6.748957	6.748957
O	2.249650	4.499307	6.748957
Pa	2.249650	6.748957	6.748957
Sr_sv	0.000000	4.499307	4.499307
O	6.748957	2.249650	0.000000
O	4.499307	2.249650	2.249650
O	6.748957	0.000000	2.249650
Pa	6.748957	2.249650	2.249650
Sr_sv	4.499307	0.000000	0.000000
O	6.748957	2.249650	4.499307
O	4.499307	2.249650	6.748957
O	6.748957	0.000000	6.748957
Pa	6.748957	2.249650	6.748957
Sr_sv	4.499307	0.000000	4.499307
O	6.748957	6.748957	0.000000
O	4.499307	6.748957	2.249650
O	6.748957	4.499307	2.249650
Pa	6.748957	6.748957	2.249650
Sr_sv	4.499307	4.499307	0.000000
O	6.748957	6.748957	4.499307
O	4.499307	6.748957	6.748957
O	6.748957	4.499307	6.748957
Pa	6.748957	6.748957	6.748957
Sr_sv	4.499307	4.499307	4.499307
