40

Ge	1.979870	1.979870	1.979870
O	1.979870	1.979870	0.000000
O	0.000000	1.979870	1.979870
O	1.979870	0.000000	1.979870
Pa	0.000000	0.000000	0.000000
Ge	1.979870	1.979870	5.939609
O	1.979870	1.979870	3.959739
O	0.000000	1.979870	5.939609
O	1.979870	0.000000	5.939609
Pa	0.000000	0.000000	3.959739
Ge	1.979870	5.939609	1.979870
O	1.979870	5.939609	0.000000
O	0.000000	5.939609	1.979870
O	1.979870	3.959739	1.979870
Pa	0.000000	3.959739	0.000000
Ge	1.979870	5.939609	5.939609
O	1.979870	5.939609	3.959739
O	0.000000	5.939609	5.939609
O	1.979870	3.959739	5.939609
Pa	0.000000	3.959739	3.959739
Ge	5.939609	1.979870	1.979870
O	5.939609	1.979870	0.000000
O	3.959739	1.979870	1.979870
O	5.939609	0.000000	1.979870
Pa	3.959739	0.000000	0.000000
Ge	5.939609	1.979870	5.939609
O	5.939609	1.979870	3.959739
O	3.959739	1.979870	5.939609
O	5.939609	0.000000	5.939609
Pa	3.959739	0.000000	3.959739
Ge	5.939609	5.939609	1.979870
O	5.939609	5.939609	0.000000
O	3.959739	5.939609	1.979870
O	5.939609	3.959739	1.979870
Pa	3.959739	3.959739	0.000000
Ge	5.939609	5.939609	5.939609
O	5.939609	5.939609	3.959739
O	3.959739	5.939609	5.939609
O	5.939609	3.959739	5.939609
Pa	3.959739	3.959739	3.959739
