40

Mn	1.945712	1.945712	1.945712
O	0.000000	1.945712	1.945712
O	1.945712	0.000000	1.945712
O	1.945712	1.945712	0.000000
Sr	0.000000	0.000000	0.000000
Mn	1.945712	1.945712	5.837137
O	0.000000	1.945712	5.837137
O	1.945712	0.000000	5.837137
O	1.945712	1.945712	3.891425
Sr	0.000000	0.000000	3.891425
Mn	1.945712	5.837137	1.945712
O	0.000000	5.837137	1.945712
O	1.945712	3.891425	1.945712
O	1.945712	5.837137	0.000000
Sr	0.000000	3.891425	0.000000
Mn	1.945712	5.837137	5.837137
O	0.000000	5.837137	5.837137
O	1.945712	3.891425	5.837137
O	1.945712	5.837137	3.891425
Sr	0.000000	3.891425	3.891425
Mn	5.837137	1.945712	1.945712
O	3.891425	1.945712	1.945712
O	5.837137	0.000000	1.945712
O	5.837137	1.945712	0.000000
Sr	3.891425	0.000000	0.000000
Mn	5.837137	1.945712	5.837137
O	3.891425	1.945712	5.837137
O	5.837137	0.000000	5.837137
O	5.837137	1.945712	3.891425
Sr	3.891425	0.000000	3.891425
Mn	5.837137	5.837137	1.945712
O	3.891425	5.837137	1.945712
O	5.837137	3.891425	1.945712
O	5.837137	5.837137	0.000000
Sr	3.891425	3.891425	0.000000
Mn	5.837137	5.837137	5.837137
O	3.891425	5.837137	5.837137
O	5.837137	3.891425	5.837137
O	5.837137	5.837137	3.891425
Sr	3.891425	3.891425	3.891425
