40

Al	1.834620	1.834620	1.834620
Er_3	0.000000	0.000000	0.000000
O	1.834620	0.000000	1.834620
O	0.000000	1.834620	1.834620
O	1.834620	1.834620	0.000000
Al	1.834620	1.834620	5.503873
Er_3	0.000000	0.000000	3.669253
O	1.834620	0.000000	5.503873
O	0.000000	1.834620	5.503873
O	1.834620	1.834620	3.669253
Al	1.834620	5.503873	1.834620
Er_3	0.000000	3.669253	0.000000
O	1.834620	3.669253	1.834620
O	0.000000	5.503873	1.834620
O	1.834620	5.503873	0.000000
Al	1.834620	5.503873	5.503873
Er_3	0.000000	3.669253	3.669253
O	1.834620	3.669253	5.503873
O	0.000000	5.503873	5.503873
O	1.834620	5.503873	3.669253
Al	5.503873	1.834620	1.834620
Er_3	3.669253	0.000000	0.000000
O	5.503873	0.000000	1.834620
O	3.669253	1.834620	1.834620
O	5.503873	1.834620	0.000000
Al	5.503873	1.834620	5.503873
Er_3	3.669253	0.000000	3.669253
O	5.503873	0.000000	5.503873
O	3.669253	1.834620	5.503873
O	5.503873	1.834620	3.669253
Al	5.503873	5.503873	1.834620
Er_3	3.669253	3.669253	0.000000
O	5.503873	3.669253	1.834620
O	3.669253	5.503873	1.834620
O	5.503873	5.503873	0.000000
Al	5.503873	5.503873	5.503873
Er_3	3.669253	3.669253	3.669253
O	5.503873	3.669253	5.503873
O	3.669253	5.503873	5.503873
O	5.503873	5.503873	3.669253
