136

Na	-2.266182	-0.000000	0.000000
Na	-4.785186	2.519003	0.000000
Na	0.000000	-0.000000	-2.266182
Na	-4.785186	-2.519003	0.000000
Na	-7.304189	-0.000000	0.000000
Na	-4.785186	-0.000000	-2.519003
O	0.000000	0.000000	0.000000
O	1.532409	1.532409	-3.252777
O	-3.252777	1.532409	-1.532409
O	1.532409	-1.532409	-3.252777
O	-1.532409	1.532409	-3.252777
O	-3.252777	-1.532409	-1.532409
O	-6.317594	1.532409	-1.532409
O	-1.532409	-1.532409	-3.252777
O	-6.317594	-1.532409	-1.532409
S	-2.392593	2.392593	-2.392593
S	-2.392593	-2.392593	-2.392593
Na	-7.051368	-4.785186	0.000000
Na	-9.570371	-2.266182	0.000000
Na	-4.785186	-4.785186	-2.266182
Na	-9.570371	-7.304189	0.000000
Na	-12.089375	-4.785186	0.000000
Na	-9.570371	-4.785186	-2.519003
O	-4.785186	-4.785186	0.000000
O	-3.252777	-3.252777	-3.252777
O	-8.037962	-3.252777	-1.532409
O	-3.252777	-6.317594	-3.252777
O	-6.317594	-3.252777	-3.252777
O	-8.037962	-6.317594	-1.532409
O	-11.102780	-3.252777	-1.532409
O	-6.317594	-6.317594	-3.252777
O	-11.102780	-6.317594	-1.532409
S	-7.177778	-2.392593	-2.392593
S	-7.177778	-7.177778	-2.392593
Na	2.519003	-0.000000	-4.785186
Na	0.000000	2.519003	-4.785186
Na	4.785186	-0.000000	-7.051368
Na	0.000000	-2.519003	-4.785186
Na	-2.519003	-0.000000	-4.785186
Na	0.000000	-0.000000	-7.304189
O	4.785186	0.000000	-4.785186
O	6.317594	1.532409	-8.037962
O	1.532409	1.532409	-6.317594
O	6.317594	-1.532409	-8.037962
O	3.252777	1.532409	-8.037962
O	1.532409	-1.532409	-6.317594
O	-1.532409	1.532409	-6.317594
O	3.252777	-1.532409	-8.037962
O	-1.532409	-1.532409	-6.317594
S	2.392593	2.392593	-7.177778
S	2.392593	-2.392593	-7.177778
Na	-2.266182	-4.785186	-4.785186
Na	-4.785186	-2.266182	-4.785186
Na	0.000000	-4.785186	-7.051368
Na	-4.785186	-7.304189	-4.785186
Na	-7.304189	-4.785186	-4.785186
Na	-4.785186	-4.785186	-7.304189
O	0.000000	-4.785186	-4.785186
O	1.532409	-3.252777	-8.037962
O	-3.252777	-3.252777	-6.317594
O	1.532409	-6.317594	-8.037962
O	-1.532409	-3.252777	-8.037962
O	-3.252777	-6.317594	-6.317594
O	-6.317594	-3.252777	-6.317594
O	-1.532409	-6.317594	-8.037962
O	-6.317594	-6.317594	-6.317594
S	-2.392593	-2.392593	-7.177778
S	-2.392593	-7.177778	-7.177778
Na	-7.051368	4.785186	0.000000
Na	-9.570371	7.304189	0.000000
Na	-4.785186	4.785186	-2.266182
Na	-9.570371	2.266182	0.000000
Na	-12.089375	4.785186	0.000000
Na	-9.570371	4.785186	-2.519003
O	-4.785186	4.785186	0.000000
O	-3.252777	6.317594	-3.252777
O	-8.037962	6.317594	-1.532409
O	-3.252777	3.252777	-3.252777
O	-6.317594	6.317594	-3.252777
O	-8.037962	3.252777	-1.532409
O	-11.102780	6.317594	-1.532409
O	-6.317594	3.252777	-3.252777
O	-11.102780	3.252777	-1.532409
S	-7.177778	7.177778	-2.392593
S	-7.177778	2.392593	-2.392593
Na	-11.836553	0.000000	0.000000
Na	-14.355557	2.519003	0.000000
Na	-9.570371	0.000000	-2.266182
Na	-14.355557	-2.519003	0.000000
Na	-16.874560	0.000000	0.000000
Na	-14.355557	0.000000	-2.519003
O	-9.570371	0.000000	0.000000
O	-8.037962	1.532409	-3.252777
O	-12.823148	1.532409	-1.532409
O	-8.037962	-1.532409	-3.252777
O	-11.102780	1.532409	-3.252777
O	-12.823148	-1.532409	-1.532409
O	-15.887966	1.532409	-1.532409
O	-11.102780	-1.532409	-3.252777
O	-15.887966	-1.532409	-1.532409
S	-11.962964	2.392593	-2.392593
S	-11.962964	-2.392593	-2.392593
Na	-2.266182	4.785186	-4.785186
Na	-4.785186	7.304189	-4.785186
Na	0.000000	4.785186	-7.051368
Na	-4.785186	2.266182	-4.785186
Na	-7.304189	4.785186	-4.785186
Na	-4.785186	4.785186	-7.304189
O	0.000000	4.785186	-4.785186
O	1.532409	6.317594	-8.037962
O	-3.252777	6.317594	-6.317594
O	1.532409	3.252777	-8.037962
O	-1.532409	6.317594	-8.037962
O	-3.252777	3.252777	-6.317594
O	-6.317594	6.317594	-6.317594
O	-1.532409	3.252777	-8.037962
O	-6.317594	3.252777	-6.317594
S	-2.392593	7.177778	-7.177778
S	-2.392593	2.392593	-7.177778
Na	-7.051368	0.000000	-4.785186
Na	-9.570371	2.519003	-4.785186
Na	-4.785186	0.000000	-7.051368
Na	-9.570371	-2.519003	-4.785186
Na	-12.089375	0.000000	-4.785186
Na	-9.570371	0.000000	-7.304189
O	-4.785186	0.000000	-4.785186
O	-3.252777	1.532409	-8.037962
O	-8.037962	1.532409	-6.317594
O	-3.252777	-1.532409	-8.037962
O	-6.317594	1.532409	-8.037962
O	-8.037962	-1.532409	-6.317594
O	-11.102780	1.532409	-6.317594
O	-6.317594	-1.532409	-8.037962
O	-11.102780	-1.532409	-6.317594
S	-7.177778	2.392593	-7.177778
S	-7.177778	-2.392593	-7.177778
