40

Bi	2.110079	2.110079	2.110079
O	0.000000	2.110079	2.110079
O	2.110079	0.000000	2.110079
O	2.110079	2.110079	0.000000
Pt	0.000000	0.000000	0.000000
Bi	2.110079	2.110079	6.330238
O	0.000000	2.110079	6.330238
O	2.110079	0.000000	6.330238
O	2.110079	2.110079	4.220159
Pt	0.000000	0.000000	4.220159
Bi	2.110079	6.330238	2.110079
O	0.000000	6.330238	2.110079
O	2.110079	4.220159	2.110079
O	2.110079	6.330238	0.000000
Pt	0.000000	4.220159	0.000000
Bi	2.110079	6.330238	6.330238
O	0.000000	6.330238	6.330238
O	2.110079	4.220159	6.330238
O	2.110079	6.330238	4.220159
Pt	0.000000	4.220159	4.220159
Bi	6.330238	2.110079	2.110079
O	4.220159	2.110079	2.110079
O	6.330238	0.000000	2.110079
O	6.330238	2.110079	0.000000
Pt	4.220159	0.000000	0.000000
Bi	6.330238	2.110079	6.330238
O	4.220159	2.110079	6.330238
O	6.330238	0.000000	6.330238
O	6.330238	2.110079	4.220159
Pt	4.220159	0.000000	4.220159
Bi	6.330238	6.330238	2.110079
O	4.220159	6.330238	2.110079
O	6.330238	4.220159	2.110079
O	6.330238	6.330238	0.000000
Pt	4.220159	4.220159	0.000000
Bi	6.330238	6.330238	6.330238
O	4.220159	6.330238	6.330238
O	6.330238	4.220159	6.330238
O	6.330238	6.330238	4.220159
Pt	4.220159	4.220159	4.220159
