40

Co	1.848028	1.848028	1.848028
Ni	0.000000	0.000000	0.000000
O	0.000000	1.848028	1.848028
O	1.848028	0.000000	1.848028
O	1.848028	1.848028	0.000000
Co	1.848028	1.848028	5.544083
Ni	0.000000	0.000000	3.696056
O	0.000000	1.848028	5.544083
O	1.848028	0.000000	5.544083
O	1.848028	1.848028	3.696056
Co	1.848028	5.544083	1.848028
Ni	0.000000	3.696056	0.000000
O	0.000000	5.544083	1.848028
O	1.848028	3.696056	1.848028
O	1.848028	5.544083	0.000000
Co	1.848028	5.544083	5.544083
Ni	0.000000	3.696056	3.696056
O	0.000000	5.544083	5.544083
O	1.848028	3.696056	5.544083
O	1.848028	5.544083	3.696056
Co	5.544083	1.848028	1.848028
Ni	3.696056	0.000000	0.000000
O	3.696056	1.848028	1.848028
O	5.544083	0.000000	1.848028
O	5.544083	1.848028	0.000000
Co	5.544083	1.848028	5.544083
Ni	3.696056	0.000000	3.696056
O	3.696056	1.848028	5.544083
O	5.544083	0.000000	5.544083
O	5.544083	1.848028	3.696056
Co	5.544083	5.544083	1.848028
Ni	3.696056	3.696056	0.000000
O	3.696056	5.544083	1.848028
O	5.544083	3.696056	1.848028
O	5.544083	5.544083	0.000000
Co	5.544083	5.544083	5.544083
Ni	3.696056	3.696056	3.696056
O	3.696056	5.544083	5.544083
O	5.544083	3.696056	5.544083
O	5.544083	5.544083	3.696056
