40

O	2.078117	2.078117	0.000000
O	2.078117	0.000000	2.078117
O	0.000000	2.078117	2.078117
Si	0.000000	0.000000	0.000000
Yb	2.078117	2.078117	2.078117
O	2.078117	2.078117	4.156235
O	2.078117	0.000000	6.234352
O	0.000000	2.078117	6.234352
Si	0.000000	0.000000	4.156235
Yb	2.078117	2.078117	6.234352
O	2.078117	6.234352	0.000000
O	2.078117	4.156235	2.078117
O	0.000000	6.234352	2.078117
Si	0.000000	4.156235	0.000000
Yb	2.078117	6.234352	2.078117
O	2.078117	6.234352	4.156235
O	2.078117	4.156235	6.234352
O	0.000000	6.234352	6.234352
Si	0.000000	4.156235	4.156235
Yb	2.078117	6.234352	6.234352
O	6.234352	2.078117	0.000000
O	6.234352	0.000000	2.078117
O	4.156235	2.078117	2.078117
Si	4.156235	0.000000	0.000000
Yb	6.234352	2.078117	2.078117
O	6.234352	2.078117	4.156235
O	6.234352	0.000000	6.234352
O	4.156235	2.078117	6.234352
Si	4.156235	0.000000	4.156235
Yb	6.234352	2.078117	6.234352
O	6.234352	6.234352	0.000000
O	6.234352	4.156235	2.078117
O	4.156235	6.234352	2.078117
Si	4.156235	4.156235	0.000000
Yb	6.234352	6.234352	2.078117
O	6.234352	6.234352	4.156235
O	6.234352	4.156235	6.234352
O	4.156235	6.234352	6.234352
Si	4.156235	4.156235	4.156235
Yb	6.234352	6.234352	6.234352
