40

O	1.769092	1.769092	0.000000
O	0.000000	1.769092	1.769092
O	1.769092	0.000000	1.769092
Si	1.769092	1.769092	1.769092
Yb	0.000000	0.000000	0.000000
O	1.769092	1.769092	3.538176
O	0.000000	1.769092	5.307268
O	1.769092	0.000000	5.307268
Si	1.769092	1.769092	5.307268
Yb	0.000000	0.000000	3.538176
O	1.769092	5.307268	0.000000
O	0.000000	5.307268	1.769092
O	1.769092	3.538176	1.769092
Si	1.769092	5.307268	1.769092
Yb	0.000000	3.538176	0.000000
O	1.769092	5.307268	3.538176
O	0.000000	5.307268	5.307268
O	1.769092	3.538176	5.307268
Si	1.769092	5.307268	5.307268
Yb	0.000000	3.538176	3.538176
O	5.307268	1.769092	0.000000
O	3.538176	1.769092	1.769092
O	5.307268	0.000000	1.769092
Si	5.307268	1.769092	1.769092
Yb	3.538176	0.000000	0.000000
O	5.307268	1.769092	3.538176
O	3.538176	1.769092	5.307268
O	5.307268	0.000000	5.307268
Si	5.307268	1.769092	5.307268
Yb	3.538176	0.000000	3.538176
O	5.307268	5.307268	0.000000
O	3.538176	5.307268	1.769092
O	5.307268	3.538176	1.769092
Si	5.307268	5.307268	1.769092
Yb	3.538176	3.538176	0.000000
O	5.307268	5.307268	3.538176
O	3.538176	5.307268	5.307268
O	5.307268	3.538176	5.307268
Si	5.307268	5.307268	5.307268
Yb	3.538176	3.538176	3.538176
