40

Cu	1.885430	1.885430	1.885430
O	0.000000	1.885430	1.885430
O	1.885430	0.000000	1.885430
O	1.885430	1.885430	0.000000
Rh	0.000000	0.000000	0.000000
Cu	1.885430	1.885430	5.656290
O	0.000000	1.885430	5.656290
O	1.885430	0.000000	5.656290
O	1.885430	1.885430	3.770860
Rh	0.000000	0.000000	3.770860
Cu	1.885430	5.656290	1.885430
O	0.000000	5.656290	1.885430
O	1.885430	3.770860	1.885430
O	1.885430	5.656290	0.000000
Rh	0.000000	3.770860	0.000000
Cu	1.885430	5.656290	5.656290
O	0.000000	5.656290	5.656290
O	1.885430	3.770860	5.656290
O	1.885430	5.656290	3.770860
Rh	0.000000	3.770860	3.770860
Cu	5.656290	1.885430	1.885430
O	3.770860	1.885430	1.885430
O	5.656290	0.000000	1.885430
O	5.656290	1.885430	0.000000
Rh	3.770860	0.000000	0.000000
Cu	5.656290	1.885430	5.656290
O	3.770860	1.885430	5.656290
O	5.656290	0.000000	5.656290
O	5.656290	1.885430	3.770860
Rh	3.770860	0.000000	3.770860
Cu	5.656290	5.656290	1.885430
O	3.770860	5.656290	1.885430
O	5.656290	3.770860	1.885430
O	5.656290	5.656290	0.000000
Rh	3.770860	3.770860	0.000000
Cu	5.656290	5.656290	5.656290
O	3.770860	5.656290	5.656290
O	5.656290	3.770860	5.656290
O	5.656290	5.656290	3.770860
Rh	3.770860	3.770860	3.770860
