40

Cl	1.968051	1.968051	1.968051
Hg	0.000000	0.000000	0.000000
O	0.000000	1.968051	1.968051
O	1.968051	0.000000	1.968051
O	1.968051	1.968051	0.000000
Cl	1.968051	1.968051	5.904153
Hg	0.000000	0.000000	3.936102
O	0.000000	1.968051	5.904153
O	1.968051	0.000000	5.904153
O	1.968051	1.968051	3.936102
Cl	1.968051	5.904153	1.968051
Hg	0.000000	3.936102	0.000000
O	0.000000	5.904153	1.968051
O	1.968051	3.936102	1.968051
O	1.968051	5.904153	0.000000
Cl	1.968051	5.904153	5.904153
Hg	0.000000	3.936102	3.936102
O	0.000000	5.904153	5.904153
O	1.968051	3.936102	5.904153
O	1.968051	5.904153	3.936102
Cl	5.904153	1.968051	1.968051
Hg	3.936102	0.000000	0.000000
O	3.936102	1.968051	1.968051
O	5.904153	0.000000	1.968051
O	5.904153	1.968051	0.000000
Cl	5.904153	1.968051	5.904153
Hg	3.936102	0.000000	3.936102
O	3.936102	1.968051	5.904153
O	5.904153	0.000000	5.904153
O	5.904153	1.968051	3.936102
Cl	5.904153	5.904153	1.968051
Hg	3.936102	3.936102	0.000000
O	3.936102	5.904153	1.968051
O	5.904153	3.936102	1.968051
O	5.904153	5.904153	0.000000
Cl	5.904153	5.904153	5.904153
Hg	3.936102	3.936102	3.936102
O	3.936102	5.904153	5.904153
O	5.904153	3.936102	5.904153
O	5.904153	5.904153	3.936102
