40

O	0.000000	1.882337	1.882337
O	1.882337	0.000000	1.882337
O	1.882337	1.882337	0.000000
Pd	0.000000	0.000000	0.000000
S	1.882337	1.882337	1.882337
O	0.000000	1.882337	5.647012
O	1.882337	0.000000	5.647012
O	1.882337	1.882337	3.764675
Pd	0.000000	0.000000	3.764675
S	1.882337	1.882337	5.647012
O	0.000000	5.647012	1.882337
O	1.882337	3.764675	1.882337
O	1.882337	5.647012	0.000000
Pd	0.000000	3.764675	0.000000
S	1.882337	5.647012	1.882337
O	0.000000	5.647012	5.647012
O	1.882337	3.764675	5.647012
O	1.882337	5.647012	3.764675
Pd	0.000000	3.764675	3.764675
S	1.882337	5.647012	5.647012
O	3.764675	1.882337	1.882337
O	5.647012	0.000000	1.882337
O	5.647012	1.882337	0.000000
Pd	3.764675	0.000000	0.000000
S	5.647012	1.882337	1.882337
O	3.764675	1.882337	5.647012
O	5.647012	0.000000	5.647012
O	5.647012	1.882337	3.764675
Pd	3.764675	0.000000	3.764675
S	5.647012	1.882337	5.647012
O	3.764675	5.647012	1.882337
O	5.647012	3.764675	1.882337
O	5.647012	5.647012	0.000000
Pd	3.764675	3.764675	0.000000
S	5.647012	5.647012	1.882337
O	3.764675	5.647012	5.647012
O	5.647012	3.764675	5.647012
O	5.647012	5.647012	3.764675
Pd	3.764675	3.764675	3.764675
S	5.647012	5.647012	5.647012
