40

O	0.000000	1.969015	1.969015
O	1.969015	0.000000	1.969015
O	1.969015	1.969015	0.000000
Rh	1.969015	1.969015	1.969015
Tc	0.000000	0.000000	0.000000
O	0.000000	1.969015	5.907045
O	1.969015	0.000000	5.907045
O	1.969015	1.969015	3.938030
Rh	1.969015	1.969015	5.907045
Tc	0.000000	0.000000	3.938030
O	0.000000	5.907045	1.969015
O	1.969015	3.938030	1.969015
O	1.969015	5.907045	0.000000
Rh	1.969015	5.907045	1.969015
Tc	0.000000	3.938030	0.000000
O	0.000000	5.907045	5.907045
O	1.969015	3.938030	5.907045
O	1.969015	5.907045	3.938030
Rh	1.969015	5.907045	5.907045
Tc	0.000000	3.938030	3.938030
O	3.938030	1.969015	1.969015
O	5.907045	0.000000	1.969015
O	5.907045	1.969015	0.000000
Rh	5.907045	1.969015	1.969015
Tc	3.938030	0.000000	0.000000
O	3.938030	1.969015	5.907045
O	5.907045	0.000000	5.907045
O	5.907045	1.969015	3.938030
Rh	5.907045	1.969015	5.907045
Tc	3.938030	0.000000	3.938030
O	3.938030	5.907045	1.969015
O	5.907045	3.938030	1.969015
O	5.907045	5.907045	0.000000
Rh	5.907045	5.907045	1.969015
Tc	3.938030	3.938030	0.000000
O	3.938030	5.907045	5.907045
O	5.907045	3.938030	5.907045
O	5.907045	5.907045	3.938030
Rh	5.907045	5.907045	5.907045
Tc	3.938030	3.938030	3.938030
