40

As	0.000000	0.000000	0.000000
O	2.057250	0.000000	2.057250
O	0.000000	2.057250	2.057250
O	2.057250	2.057250	0.000000
Yb_2	2.057250	2.057250	2.057250
As	0.000000	0.000000	4.114518
O	2.057250	0.000000	6.171768
O	0.000000	2.057250	6.171768
O	2.057250	2.057250	4.114518
Yb_2	2.057250	2.057250	6.171768
As	0.000000	4.114518	0.000000
O	2.057250	4.114518	2.057250
O	0.000000	6.171768	2.057250
O	2.057250	6.171768	0.000000
Yb_2	2.057250	6.171768	2.057250
As	0.000000	4.114518	4.114518
O	2.057250	4.114518	6.171768
O	0.000000	6.171768	6.171768
O	2.057250	6.171768	4.114518
Yb_2	2.057250	6.171768	6.171768
As	4.114518	0.000000	0.000000
O	6.171768	0.000000	2.057250
O	4.114518	2.057250	2.057250
O	6.171768	2.057250	0.000000
Yb_2	6.171768	2.057250	2.057250
As	4.114518	0.000000	4.114518
O	6.171768	0.000000	6.171768
O	4.114518	2.057250	6.171768
O	6.171768	2.057250	4.114518
Yb_2	6.171768	2.057250	6.171768
As	4.114518	4.114518	0.000000
O	6.171768	4.114518	2.057250
O	4.114518	6.171768	2.057250
O	6.171768	6.171768	0.000000
Yb_2	6.171768	6.171768	2.057250
As	4.114518	4.114518	4.114518
O	6.171768	4.114518	6.171768
O	4.114518	6.171768	6.171768
O	6.171768	6.171768	4.114518
Yb_2	6.171768	6.171768	6.171768
