40

Eu	0.000000	0.000000	0.000000
In	2.088304	2.088304	2.088304
O	0.000000	2.088304	2.088304
O	2.088304	0.000000	2.088304
O	2.088304	2.088304	0.000000
Eu	0.000000	0.000000	4.176607
In	2.088304	2.088304	6.264911
O	0.000000	2.088304	6.264911
O	2.088304	0.000000	6.264911
O	2.088304	2.088304	4.176607
Eu	0.000000	4.176607	0.000000
In	2.088304	6.264911	2.088304
O	0.000000	6.264911	2.088304
O	2.088304	4.176607	2.088304
O	2.088304	6.264911	0.000000
Eu	0.000000	4.176607	4.176607
In	2.088304	6.264911	6.264911
O	0.000000	6.264911	6.264911
O	2.088304	4.176607	6.264911
O	2.088304	6.264911	4.176607
Eu	4.176607	0.000000	0.000000
In	6.264911	2.088304	2.088304
O	4.176607	2.088304	2.088304
O	6.264911	0.000000	2.088304
O	6.264911	2.088304	0.000000
Eu	4.176607	0.000000	4.176607
In	6.264911	2.088304	6.264911
O	4.176607	2.088304	6.264911
O	6.264911	0.000000	6.264911
O	6.264911	2.088304	4.176607
Eu	4.176607	4.176607	0.000000
In	6.264911	6.264911	2.088304
O	4.176607	6.264911	2.088304
O	6.264911	4.176607	2.088304
O	6.264911	6.264911	0.000000
Eu	4.176607	4.176607	4.176607
In	6.264911	6.264911	6.264911
O	4.176607	6.264911	6.264911
O	6.264911	4.176607	6.264911
O	6.264911	6.264911	4.176607
