40

Li	0.000000	0.000000	0.000000
O	2.141740	2.141740	0.000000
O	0.000000	2.141740	2.141740
O	2.141740	0.000000	2.141740
U	2.141740	2.141740	2.141740
Li	0.000000	0.000000	4.283494
O	2.141740	2.141740	4.283494
O	0.000000	2.141740	6.425234
O	2.141740	0.000000	6.425234
U	2.141740	2.141740	6.425234
Li	0.000000	4.283494	0.000000
O	2.141740	6.425234	0.000000
O	0.000000	6.425234	2.141740
O	2.141740	4.283494	2.141740
U	2.141740	6.425234	2.141740
Li	0.000000	4.283494	4.283494
O	2.141740	6.425234	4.283494
O	0.000000	6.425234	6.425234
O	2.141740	4.283494	6.425234
U	2.141740	6.425234	6.425234
Li	4.283494	0.000000	0.000000
O	6.425234	2.141740	0.000000
O	4.283494	2.141740	2.141740
O	6.425234	0.000000	2.141740
U	6.425234	2.141740	2.141740
Li	4.283494	0.000000	4.283494
O	6.425234	2.141740	4.283494
O	4.283494	2.141740	6.425234
O	6.425234	0.000000	6.425234
U	6.425234	2.141740	6.425234
Li	4.283494	4.283494	0.000000
O	6.425234	6.425234	0.000000
O	4.283494	6.425234	2.141740
O	6.425234	4.283494	2.141740
U	6.425234	6.425234	2.141740
Li	4.283494	4.283494	4.283494
O	6.425234	6.425234	4.283494
O	4.283494	6.425234	6.425234
O	6.425234	4.283494	6.425234
U	6.425234	6.425234	6.425234
