40

Hg	2.110170	2.110170	2.110170
O	2.110170	2.110170	0.000000
O	2.110170	0.000000	2.110170
O	0.000000	2.110170	2.110170
Sn	0.000000	0.000000	0.000000
Hg	2.110170	2.110170	6.330511
O	2.110170	2.110170	4.220341
O	2.110170	0.000000	6.330511
O	0.000000	2.110170	6.330511
Sn	0.000000	0.000000	4.220341
Hg	2.110170	6.330511	2.110170
O	2.110170	6.330511	0.000000
O	2.110170	4.220341	2.110170
O	0.000000	6.330511	2.110170
Sn	0.000000	4.220341	0.000000
Hg	2.110170	6.330511	6.330511
O	2.110170	6.330511	4.220341
O	2.110170	4.220341	6.330511
O	0.000000	6.330511	6.330511
Sn	0.000000	4.220341	4.220341
Hg	6.330511	2.110170	2.110170
O	6.330511	2.110170	0.000000
O	6.330511	0.000000	2.110170
O	4.220341	2.110170	2.110170
Sn	4.220341	0.000000	0.000000
Hg	6.330511	2.110170	6.330511
O	6.330511	2.110170	4.220341
O	6.330511	0.000000	6.330511
O	4.220341	2.110170	6.330511
Sn	4.220341	0.000000	4.220341
Hg	6.330511	6.330511	2.110170
O	6.330511	6.330511	0.000000
O	6.330511	4.220341	2.110170
O	4.220341	6.330511	2.110170
Sn	4.220341	4.220341	0.000000
Hg	6.330511	6.330511	6.330511
O	6.330511	6.330511	4.220341
O	6.330511	4.220341	6.330511
O	4.220341	6.330511	6.330511
Sn	4.220341	4.220341	4.220341
