112

Hg	0.000000	0.000000	0.000000
Hg	2.236348	-2.236949	-2.236949
O	3.553025	-0.919424	-0.919424
O	-0.919671	0.919424	-3.554473
O	0.919671	-0.919424	-3.554473
O	1.316677	1.317524	-1.317524
O	5.392368	0.919424	-0.919424
O	1.316677	3.156373	-3.156373
O	3.156020	3.156373	-1.317524
O	3.156020	1.317524	-3.156373
Ti	-1.118174	-1.118474	-3.355423
Ti	3.354522	1.118474	-1.118474
Ti	5.590871	-1.118474	-1.118474
Ti	1.118174	1.118474	-3.355423
Hg	4.472697	4.473897	0.000000
Hg	6.709045	2.236949	-2.236949
O	8.025722	3.554473	-0.919424
O	3.553025	5.393321	-3.554473
O	5.392368	3.554473	-3.554473
O	5.789374	5.791421	-1.317524
O	9.865064	5.393321	-0.919424
O	5.789374	7.630270	-3.156373
O	7.628716	7.630270	-1.317524
O	7.628716	5.791421	-3.156373
Ti	3.354522	3.355423	-3.355423
Ti	7.827219	5.592371	-1.118474
Ti	10.063567	3.355423	-1.118474
Ti	5.590871	5.592371	-3.355423
Hg	-4.472697	0.000000	-4.473897
Hg	-2.236348	-2.236949	-6.710846
O	-0.919671	-0.919424	-5.393321
O	-5.392368	0.919424	-8.028370
O	-3.553025	-0.919424	-8.028370
O	-3.156020	1.317524	-5.791421
O	0.919671	0.919424	-5.393321
O	-3.156020	3.156373	-7.630270
O	-1.316677	3.156373	-5.791421
O	-1.316677	1.317524	-7.630270
Ti	-5.590871	-1.118474	-7.829320
Ti	-1.118174	1.118474	-5.592371
Ti	1.118174	-1.118474	-5.592371
Ti	-3.354522	1.118474	-7.829320
Hg	0.000000	4.473897	-4.473897
Hg	2.236348	2.236949	-6.710846
O	3.553025	3.554473	-5.393321
O	-0.919671	5.393321	-8.028370
O	0.919671	3.554473	-8.028370
O	1.316677	5.791421	-5.791421
O	5.392368	5.393321	-5.393321
O	1.316677	7.630270	-7.630270
O	3.156020	7.630270	-5.791421
O	3.156020	5.791421	-7.630270
Ti	-1.118174	3.355423	-7.829320
Ti	3.354522	5.592371	-5.592371
Ti	5.590871	3.355423	-5.592371
Ti	1.118174	5.592371	-7.829320
Hg	4.472697	-4.473897	0.000000
Hg	6.709045	-6.710846	-2.236949
O	8.025722	-5.393321	-0.919424
O	3.553025	-3.554473	-3.554473
O	5.392368	-5.393321	-3.554473
O	5.789374	-3.156373	-1.317524
O	9.865064	-3.554473	-0.919424
O	5.789374	-1.317524	-3.156373
O	7.628716	-1.317524	-1.317524
O	7.628716	-3.156373	-3.156373
Ti	3.354522	-5.592371	-3.355423
Ti	7.827219	-3.355423	-1.118474
Ti	10.063567	-5.592371	-1.118474
Ti	5.590871	-3.355423	-3.355423
Hg	8.945393	0.000000	0.000000
Hg	11.181741	-2.236949	-2.236949
O	12.498418	-0.919424	-0.919424
O	8.025722	0.919424	-3.554473
O	9.865064	-0.919424	-3.554473
O	10.262070	1.317524	-1.317524
O	14.337761	0.919424	-0.919424
O	10.262070	3.156373	-3.156373
O	12.101413	3.156373	-1.317524
O	12.101413	1.317524	-3.156373
Ti	7.827219	-1.118474	-3.355423
Ti	12.299915	1.118474	-1.118474
Ti	14.536264	-1.118474	-1.118474
Ti	10.063567	1.118474	-3.355423
Hg	0.000000	-4.473897	-4.473897
Hg	2.236348	-6.710846	-6.710846
O	3.553025	-5.393321	-5.393321
O	-0.919671	-3.554473	-8.028370
O	0.919671	-5.393321	-8.028370
O	1.316677	-3.156373	-5.791421
O	5.392368	-3.554473	-5.393321
O	1.316677	-1.317524	-7.630270
O	3.156020	-1.317524	-5.791421
O	3.156020	-3.156373	-7.630270
Ti	-1.118174	-5.592371	-7.829320
Ti	3.354522	-3.355423	-5.592371
Ti	5.590871	-5.592371	-5.592371
Ti	1.118174	-3.355423	-7.829320
Hg	4.472697	0.000000	-4.473897
Hg	6.709045	-2.236949	-6.710846
O	8.025722	-0.919424	-5.393321
O	3.553025	0.919424	-8.028370
O	5.392368	-0.919424	-8.028370
O	5.789374	1.317524	-5.791421
O	9.865064	0.919424	-5.393321
O	5.789374	3.156373	-7.630270
O	7.628716	3.156373	-5.791421
O	7.628716	1.317524	-7.630270
Ti	3.354522	-1.118474	-7.829320
Ti	7.827219	1.118474	-5.592371
Ti	10.063567	-1.118474	-5.592371
Ti	5.590871	1.118474	-7.829320
