40

Cd	0.000000	0.000000	0.000000
O	0.000000	2.111466	2.111466
O	2.111466	0.000000	2.111466
O	2.111466	2.111466	0.000000
Tl	2.111466	2.111466	2.111466
Cd	0.000000	0.000000	4.222931
O	0.000000	2.111466	6.334397
O	2.111466	0.000000	6.334397
O	2.111466	2.111466	4.222931
Tl	2.111466	2.111466	6.334397
Cd	0.000000	4.222931	0.000000
O	0.000000	6.334397	2.111466
O	2.111466	4.222931	2.111466
O	2.111466	6.334397	0.000000
Tl	2.111466	6.334397	2.111466
Cd	0.000000	4.222931	4.222931
O	0.000000	6.334397	6.334397
O	2.111466	4.222931	6.334397
O	2.111466	6.334397	4.222931
Tl	2.111466	6.334397	6.334397
Cd	4.222931	0.000000	0.000000
O	4.222931	2.111466	2.111466
O	6.334397	0.000000	2.111466
O	6.334397	2.111466	0.000000
Tl	6.334397	2.111466	2.111466
Cd	4.222931	0.000000	4.222931
O	4.222931	2.111466	6.334397
O	6.334397	0.000000	6.334397
O	6.334397	2.111466	4.222931
Tl	6.334397	2.111466	6.334397
Cd	4.222931	4.222931	0.000000
O	4.222931	6.334397	2.111466
O	6.334397	4.222931	2.111466
O	6.334397	6.334397	0.000000
Tl	6.334397	6.334397	2.111466
Cd	4.222931	4.222931	4.222931
O	4.222931	6.334397	6.334397
O	6.334397	4.222931	6.334397
O	6.334397	6.334397	4.222931
Tl	6.334397	6.334397	6.334397
