40

Al	1.860535	1.860535	1.860535
O	0.000000	1.860535	1.860535
O	1.860535	0.000000	1.860535
O	1.860535	1.860535	0.000000
Rh	0.000000	0.000000	0.000000
Al	1.860535	1.860535	5.581604
O	0.000000	1.860535	5.581604
O	1.860535	0.000000	5.581604
O	1.860535	1.860535	3.721069
Rh	0.000000	0.000000	3.721069
Al	1.860535	5.581604	1.860535
O	0.000000	5.581604	1.860535
O	1.860535	3.721069	1.860535
O	1.860535	5.581604	0.000000
Rh	0.000000	3.721069	0.000000
Al	1.860535	5.581604	5.581604
O	0.000000	5.581604	5.581604
O	1.860535	3.721069	5.581604
O	1.860535	5.581604	3.721069
Rh	0.000000	3.721069	3.721069
Al	5.581604	1.860535	1.860535
O	3.721069	1.860535	1.860535
O	5.581604	0.000000	1.860535
O	5.581604	1.860535	0.000000
Rh	3.721069	0.000000	0.000000
Al	5.581604	1.860535	5.581604
O	3.721069	1.860535	5.581604
O	5.581604	0.000000	5.581604
O	5.581604	1.860535	3.721069
Rh	3.721069	0.000000	3.721069
Al	5.581604	5.581604	1.860535
O	3.721069	5.581604	1.860535
O	5.581604	3.721069	1.860535
O	5.581604	5.581604	0.000000
Rh	3.721069	3.721069	0.000000
Al	5.581604	5.581604	5.581604
O	3.721069	5.581604	5.581604
O	5.581604	3.721069	5.581604
O	5.581604	5.581604	3.721069
Rh	3.721069	3.721069	3.721069
