176

O	5.201105	3.677737	9.008578
O	3.120663	2.206642	5.405147
O	3.971761	5.416293	11.137866
O	1.891318	3.945198	7.534434
O	6.430450	1.939181	11.137866
O	7.659794	5.416293	9.008578
O	2.742416	1.939181	9.008578
O	3.971761	5.416293	6.879291
O	6.430450	1.939181	6.879291
O	5.579352	3.945198	5.405147
O	0.661974	0.468086	5.405147
O	4.350008	0.468086	3.275860
O	4.350008	0.468086	7.534434
O	1.891318	3.945198	3.275860
Ti	1.040221	2.942189	1.801716
Ti	3.120663	0.000000	1.801716
Ti	0.000000	0.000000	3.603431
Ti	0.000000	0.000000	0.000000
Tb	3.120663	0.000000	5.405147
Tb	1.040221	2.942189	5.405147
Tb	4.160884	2.942189	3.603431
Tb	4.160884	2.942189	7.206863
O	5.201105	3.677737	16.215441
O	3.120663	2.206642	12.612010
O	3.971761	5.416293	18.344729
O	1.891318	3.945198	14.741297
O	6.430450	1.939181	18.344729
O	7.659794	5.416293	16.215441
O	2.742416	1.939181	16.215441
O	3.971761	5.416293	14.086154
O	6.430450	1.939181	14.086154
O	5.579352	3.945198	12.612010
O	0.661974	0.468086	12.612010
O	4.350008	0.468086	10.482722
O	4.350008	0.468086	14.741297
O	1.891318	3.945198	10.482722
Ti	1.040221	2.942189	9.008578
Ti	3.120663	0.000000	9.008578
Ti	0.000000	0.000000	10.810294
Ti	0.000000	0.000000	7.206863
Tb	3.120663	0.000000	12.612010
Tb	1.040221	2.942189	12.612010
Tb	4.160884	2.942189	10.810294
Tb	4.160884	2.942189	14.413726
O	7.281547	9.562116	12.612010
O	5.201105	8.091021	9.008578
O	6.052203	11.300671	14.741297
O	3.971761	9.829577	11.137866
O	8.510892	7.823560	14.741297
O	9.740237	11.300671	12.612010
O	4.822858	7.823560	12.612010
O	6.052203	11.300671	10.482722
O	8.510892	7.823560	10.482722
O	7.659794	9.829577	9.008578
O	2.742416	6.352465	9.008578
O	6.430450	6.352465	6.879291
O	6.430450	6.352465	11.137866
O	3.971761	9.829577	6.879291
Ti	3.120663	8.826568	5.405147
Ti	5.201105	5.884379	5.405147
Ti	2.080442	5.884379	7.206863
Ti	2.080442	5.884379	3.603431
Tb	5.201105	5.884379	9.008578
Tb	3.120663	8.826568	9.008578
Tb	6.241326	8.826568	7.206863
Tb	6.241326	8.826568	10.810294
O	7.281547	9.562116	19.818873
O	5.201105	8.091021	16.215441
O	6.052203	11.300671	21.948160
O	3.971761	9.829577	18.344729
O	8.510892	7.823560	21.948160
O	9.740237	11.300671	19.818873
O	4.822858	7.823560	19.818873
O	6.052203	11.300671	17.689585
O	8.510892	7.823560	17.689585
O	7.659794	9.829577	16.215441
O	2.742416	6.352465	16.215441
O	6.430450	6.352465	14.086154
O	6.430450	6.352465	18.344729
O	3.971761	9.829577	14.086154
Ti	3.120663	8.826568	12.612010
Ti	5.201105	5.884379	12.612010
Ti	2.080442	5.884379	14.413726
Ti	2.080442	5.884379	10.810294
Tb	5.201105	5.884379	16.215441
Tb	3.120663	8.826568	16.215441
Tb	6.241326	8.826568	14.413726
Tb	6.241326	8.826568	18.017157
O	11.442431	3.677737	12.612010
O	9.361989	2.206642	9.008578
O	10.213087	5.416293	14.741297
O	8.132645	3.945198	11.137866
O	12.671776	1.939181	14.741297
O	13.901121	5.416293	12.612010
O	8.983742	1.939181	12.612010
O	10.213087	5.416293	10.482722
O	12.671776	1.939181	10.482722
O	11.820679	3.945198	9.008578
O	6.903300	0.468086	9.008578
O	10.591334	0.468086	6.879291
O	10.591334	0.468086	11.137866
O	8.132645	3.945198	6.879291
Ti	7.281547	2.942189	5.405147
Ti	9.361989	0.000000	5.405147
Ti	6.241326	0.000000	7.206863
Ti	6.241326	0.000000	3.603431
Tb	9.361989	0.000000	9.008578
Tb	7.281547	2.942189	9.008578
Tb	10.402210	2.942189	7.206863
Tb	10.402210	2.942189	10.810294
O	11.442431	3.677737	19.818873
O	9.361989	2.206642	16.215441
O	10.213087	5.416293	21.948160
O	8.132645	3.945198	18.344729
O	12.671776	1.939181	21.948160
O	13.901121	5.416293	19.818873
O	8.983742	1.939181	19.818873
O	10.213087	5.416293	17.689585
O	12.671776	1.939181	17.689585
O	11.820679	3.945198	16.215441
O	6.903300	0.468086	16.215441
O	10.591334	0.468086	14.086154
O	10.591334	0.468086	18.344729
O	8.132645	3.945198	14.086154
Ti	7.281547	2.942189	12.612010
Ti	9.361989	0.000000	12.612010
Ti	6.241326	0.000000	14.413726
Ti	6.241326	0.000000	10.810294
Tb	9.361989	0.000000	16.215441
Tb	7.281547	2.942189	16.215441
Tb	10.402210	2.942189	14.413726
Tb	10.402210	2.942189	18.017157
O	13.522874	9.562116	16.215441
O	11.442431	8.091021	12.612010
O	12.293529	11.300671	18.344729
O	10.213087	9.829577	14.741297
O	14.752218	7.823560	18.344729
O	15.981563	11.300671	16.215441
O	11.064184	7.823560	16.215441
O	12.293529	11.300671	14.086154
O	14.752218	7.823560	14.086154
O	13.901121	9.829577	12.612010
O	8.983742	6.352465	12.612010
O	12.671776	6.352465	10.482722
O	12.671776	6.352465	14.741297
O	10.213087	9.829577	10.482722
Ti	9.361989	8.826568	9.008578
Ti	11.442431	5.884379	9.008578
Ti	8.321768	5.884379	10.810294
Ti	8.321768	5.884379	7.206863
Tb	11.442431	5.884379	12.612010
Tb	9.361989	8.826568	12.612010
Tb	12.482652	8.826568	10.810294
Tb	12.482652	8.826568	14.413726
O	13.522874	9.562116	23.422304
O	11.442431	8.091021	19.818873
O	12.293529	11.300671	25.551591
O	10.213087	9.829577	21.948160
O	14.752218	7.823560	25.551591
O	15.981563	11.300671	23.422304
O	11.064184	7.823560	23.422304
O	12.293529	11.300671	21.293017
O	14.752218	7.823560	21.293017
O	13.901121	9.829577	19.818873
O	8.983742	6.352465	19.818873
O	12.671776	6.352465	17.689585
O	12.671776	6.352465	21.948160
O	10.213087	9.829577	17.689585
Ti	9.361989	8.826568	16.215441
Ti	11.442431	5.884379	16.215441
Ti	8.321768	5.884379	18.017157
Ti	8.321768	5.884379	14.413726
Tb	11.442431	5.884379	19.818873
Tb	9.361989	8.826568	19.818873
Tb	12.482652	8.826568	18.017157
Tb	12.482652	8.826568	21.620588
