112

Cd	0.000000	0.000000	0.000000
Cd	2.206163	-2.206703	-2.206703
Mg	-1.103081	-1.103352	-3.310055
Mg	3.309244	1.103352	-1.103352
Mg	5.515406	-1.103352	-1.103352
Mg	1.103081	1.103352	-3.310055
O	3.446158	-0.965737	-0.965737
O	-0.966167	0.965737	-3.447669
O	0.966167	-0.965737	-3.447669
O	1.239995	1.240966	-1.240966
O	5.378492	0.965737	-0.965737
O	1.239995	3.172440	-3.172440
O	3.172330	3.172440	-1.240966
O	3.172330	1.240966	-3.172440
Cd	4.412325	4.413406	0.000000
Cd	6.618488	2.206703	-2.206703
Mg	3.309244	3.310055	-3.310055
Mg	7.721569	5.516758	-1.103352
Mg	9.927731	3.310055	-1.103352
Mg	5.515406	5.516758	-3.310055
O	7.858483	3.447669	-0.965737
O	3.446158	5.379143	-3.447669
O	5.378492	3.447669	-3.447669
O	5.652320	5.654372	-1.240966
O	9.790817	5.379143	-0.965737
O	5.652320	7.585846	-3.172440
O	7.584655	7.585846	-1.240966
O	7.584655	5.654372	-3.172440
Cd	-4.412325	0.000000	-4.413406
Cd	-2.206163	-2.206703	-6.620109
Mg	-5.515406	-1.103352	-7.723461
Mg	-1.103081	1.103352	-5.516758
Mg	1.103081	-1.103352	-5.516758
Mg	-3.309244	1.103352	-7.723461
O	-0.966167	-0.965737	-5.379143
O	-5.378492	0.965737	-7.861075
O	-3.446158	-0.965737	-7.861075
O	-3.172330	1.240966	-5.654372
O	0.966167	0.965737	-5.379143
O	-3.172330	3.172440	-7.585846
O	-1.239995	3.172440	-5.654372
O	-1.239995	1.240966	-7.585846
Cd	0.000000	4.413406	-4.413406
Cd	2.206163	2.206703	-6.620109
Mg	-1.103081	3.310055	-7.723461
Mg	3.309244	5.516758	-5.516758
Mg	5.515406	3.310055	-5.516758
Mg	1.103081	5.516758	-7.723461
O	3.446158	3.447669	-5.379143
O	-0.966167	5.379143	-7.861075
O	0.966167	3.447669	-7.861075
O	1.239995	5.654372	-5.654372
O	5.378492	5.379143	-5.379143
O	1.239995	7.585846	-7.585846
O	3.172330	7.585846	-5.654372
O	3.172330	5.654372	-7.585846
Cd	4.412325	-4.413406	0.000000
Cd	6.618488	-6.620109	-2.206703
Mg	3.309244	-5.516758	-3.310055
Mg	7.721569	-3.310055	-1.103352
Mg	9.927731	-5.516758	-1.103352
Mg	5.515406	-3.310055	-3.310055
O	7.858483	-5.379143	-0.965737
O	3.446158	-3.447669	-3.447669
O	5.378492	-5.379143	-3.447669
O	5.652320	-3.172440	-1.240966
O	9.790817	-3.447669	-0.965737
O	5.652320	-1.240966	-3.172440
O	7.584655	-1.240966	-1.240966
O	7.584655	-3.172440	-3.172440
Cd	8.824650	0.000000	0.000000
Cd	11.030813	-2.206703	-2.206703
Mg	7.721569	-1.103352	-3.310055
Mg	12.133894	1.103352	-1.103352
Mg	14.340056	-1.103352	-1.103352
Mg	9.927731	1.103352	-3.310055
O	12.270808	-0.965737	-0.965737
O	7.858483	0.965737	-3.447669
O	9.790817	-0.965737	-3.447669
O	10.064646	1.240966	-1.240966
O	14.203142	0.965737	-0.965737
O	10.064646	3.172440	-3.172440
O	11.996980	3.172440	-1.240966
O	11.996980	1.240966	-3.172440
Cd	0.000000	-4.413406	-4.413406
Cd	2.206163	-6.620109	-6.620109
Mg	-1.103081	-5.516758	-7.723461
Mg	3.309244	-3.310055	-5.516758
Mg	5.515406	-5.516758	-5.516758
Mg	1.103081	-3.310055	-7.723461
O	3.446158	-5.379143	-5.379143
O	-0.966167	-3.447669	-7.861075
O	0.966167	-5.379143	-7.861075
O	1.239995	-3.172440	-5.654372
O	5.378492	-3.447669	-5.379143
O	1.239995	-1.240966	-7.585846
O	3.172330	-1.240966	-5.654372
O	3.172330	-3.172440	-7.585846
Cd	4.412325	0.000000	-4.413406
Cd	6.618488	-2.206703	-6.620109
Mg	3.309244	-1.103352	-7.723461
Mg	7.721569	1.103352	-5.516758
Mg	9.927731	-1.103352	-5.516758
Mg	5.515406	1.103352	-7.723461
O	7.858483	-0.965737	-5.379143
O	3.446158	0.965737	-7.861075
O	5.378492	-0.965737	-7.861075
O	5.652320	1.240966	-5.654372
O	9.790817	0.965737	-5.379143
O	5.652320	3.172440	-7.585846
O	7.584655	3.172440	-5.654372
O	7.584655	1.240966	-7.585846
