40

Ga	0.000000	0.000000	0.000000
Ho	2.172976	2.172976	2.172976
O	2.172976	2.172976	0.000000
O	2.172976	0.000000	2.172976
O	0.000000	2.172976	2.172976
Ga	0.000000	0.000000	4.345948
Ho	2.172976	2.172976	6.518925
O	2.172976	2.172976	4.345948
O	2.172976	0.000000	6.518925
O	0.000000	2.172976	6.518925
Ga	0.000000	4.345948	0.000000
Ho	2.172976	6.518925	2.172976
O	2.172976	6.518925	0.000000
O	2.172976	4.345948	2.172976
O	0.000000	6.518925	2.172976
Ga	0.000000	4.345948	4.345948
Ho	2.172976	6.518925	6.518925
O	2.172976	6.518925	4.345948
O	2.172976	4.345948	6.518925
O	0.000000	6.518925	6.518925
Ga	4.345948	0.000000	0.000000
Ho	6.518925	2.172976	2.172976
O	6.518925	2.172976	0.000000
O	6.518925	0.000000	2.172976
O	4.345948	2.172976	2.172976
Ga	4.345948	0.000000	4.345948
Ho	6.518925	2.172976	6.518925
O	6.518925	2.172976	4.345948
O	6.518925	0.000000	6.518925
O	4.345948	2.172976	6.518925
Ga	4.345948	4.345948	0.000000
Ho	6.518925	6.518925	2.172976
O	6.518925	6.518925	0.000000
O	6.518925	4.345948	2.172976
O	4.345948	6.518925	2.172976
Ga	4.345948	4.345948	4.345948
Ho	6.518925	6.518925	6.518925
O	6.518925	6.518925	4.345948
O	6.518925	4.345948	6.518925
O	4.345948	6.518925	6.518925
