112

Cs	0.000000	0.000000	0.000000
Cs	2.491211	-2.491575	-2.491575
In	-1.245606	-1.245787	-3.737362
In	3.736817	1.245787	-1.245787
In	6.228028	-1.245787	-1.245787
In	1.245606	1.245787	-3.737362
O	4.004406	-0.977527	-0.977527
O	-0.978017	0.977527	-4.005623
O	0.978017	-0.977527	-4.005623
O	1.513195	1.514048	-1.514048
O	5.960439	0.977527	-0.977527
O	1.513195	3.469101	-3.469101
O	3.469228	3.469101	-1.514048
O	3.469228	1.514048	-3.469101
Cs	4.982422	4.983150	0.000000
Cs	7.473634	2.491575	-2.491575
In	3.736817	3.737362	-3.737362
In	8.719239	6.228937	-1.245787
In	11.210450	3.737362	-1.245787
In	6.228028	6.228937	-3.737362
O	8.986828	4.005623	-0.977527
O	4.004406	5.960676	-4.005623
O	5.960439	4.005623	-4.005623
O	6.495617	6.497198	-1.514048
O	10.942861	5.960676	-0.977527
O	6.495617	8.452251	-3.469101
O	8.451650	8.452251	-1.514048
O	8.451650	6.497198	-3.469101
Cs	-4.982422	0.000000	-4.983150
Cs	-2.491211	-2.491575	-7.474724
In	-6.228028	-1.245787	-8.720512
In	-1.245606	1.245787	-6.228937
In	1.245606	-1.245787	-6.228937
In	-3.736817	1.245787	-8.720512
O	-0.978017	-0.977527	-5.960676
O	-5.960439	0.977527	-8.988773
O	-4.004406	-0.977527	-8.988773
O	-3.469228	1.514048	-6.497198
O	0.978017	0.977527	-5.960676
O	-3.469228	3.469101	-8.452251
O	-1.513195	3.469101	-6.497198
O	-1.513195	1.514048	-8.452251
Cs	0.000000	4.983150	-4.983150
Cs	2.491211	2.491575	-7.474724
In	-1.245606	3.737362	-8.720512
In	3.736817	6.228937	-6.228937
In	6.228028	3.737362	-6.228937
In	1.245606	6.228937	-8.720512
O	4.004406	4.005623	-5.960676
O	-0.978017	5.960676	-8.988773
O	0.978017	4.005623	-8.988773
O	1.513195	6.497198	-6.497198
O	5.960439	5.960676	-5.960676
O	1.513195	8.452251	-8.452251
O	3.469228	8.452251	-6.497198
O	3.469228	6.497198	-8.452251
Cs	4.982422	-4.983150	0.000000
Cs	7.473634	-7.474724	-2.491575
In	3.736817	-6.228937	-3.737362
In	8.719239	-3.737362	-1.245787
In	11.210450	-6.228937	-1.245787
In	6.228028	-3.737362	-3.737362
O	8.986828	-5.960676	-0.977527
O	4.004406	-4.005623	-4.005623
O	5.960439	-5.960676	-4.005623
O	6.495617	-3.469101	-1.514048
O	10.942861	-4.005623	-0.977527
O	6.495617	-1.514048	-3.469101
O	8.451650	-1.514048	-1.514048
O	8.451650	-3.469101	-3.469101
Cs	9.964845	0.000000	0.000000
Cs	12.456056	-2.491575	-2.491575
In	8.719239	-1.245787	-3.737362
In	13.701661	1.245787	-1.245787
In	16.192873	-1.245787	-1.245787
In	11.210450	1.245787	-3.737362
O	13.969250	-0.977527	-0.977527
O	8.986828	0.977527	-4.005623
O	10.942861	-0.977527	-4.005623
O	11.478039	1.514048	-1.514048
O	15.925284	0.977527	-0.977527
O	11.478039	3.469101	-3.469101
O	13.434073	3.469101	-1.514048
O	13.434073	1.514048	-3.469101
Cs	0.000000	-4.983150	-4.983150
Cs	2.491211	-7.474724	-7.474724
In	-1.245606	-6.228937	-8.720512
In	3.736817	-3.737362	-6.228937
In	6.228028	-6.228937	-6.228937
In	1.245606	-3.737362	-8.720512
O	4.004406	-5.960676	-5.960676
O	-0.978017	-4.005623	-8.988773
O	0.978017	-5.960676	-8.988773
O	1.513195	-3.469101	-6.497198
O	5.960439	-4.005623	-5.960676
O	1.513195	-1.514048	-8.452251
O	3.469228	-1.514048	-6.497198
O	3.469228	-3.469101	-8.452251
Cs	4.982422	0.000000	-4.983150
Cs	7.473634	-2.491575	-7.474724
In	3.736817	-1.245787	-8.720512
In	8.719239	1.245787	-6.228937
In	11.210450	-1.245787	-6.228937
In	6.228028	1.245787	-8.720512
O	8.986828	-0.977527	-5.960676
O	4.004406	0.977527	-8.988773
O	5.960439	-0.977527	-8.988773
O	6.495617	1.514048	-6.497198
O	10.942861	0.977527	-5.960676
O	6.495617	3.469101	-8.452251
O	8.451650	3.469101	-6.497198
O	8.451650	1.514048	-8.452251
