112

Ge	0.000000	0.000000	0.000000
Ge	2.351845	-2.352097	-2.352097
O	3.645952	-1.057345	-1.057345
O	-1.057738	1.057345	-3.646849
O	1.057738	-1.057345	-3.646849
O	1.294107	1.294752	-1.294752
O	5.761428	1.057345	-1.057345
O	1.294107	3.409431	-3.409431
O	3.409583	3.409431	-1.294752
O	3.409583	1.294752	-3.409431
Tm	-1.175917	-1.176048	-3.528145
Tm	5.879607	-1.176048	-1.176048
Tm	3.527762	1.176048	-1.176048
Tm	1.175917	1.176048	-3.528145
Ge	4.703688	4.704187	0.000000
Ge	7.055533	2.352091	-2.352097
O	8.349640	3.646843	-1.057345
O	3.645950	5.761532	-3.646849
O	5.761427	3.646843	-3.646849
O	5.997795	5.998939	-1.294752
O	10.465116	5.761532	-1.057345
O	5.997795	8.113619	-3.409431
O	8.113271	8.113619	-1.294752
O	8.113271	5.998939	-3.409431
Tm	3.527771	3.528139	-3.528145
Tm	10.583296	3.528139	-1.176048
Tm	8.231451	5.880236	-1.176048
Tm	5.879606	5.880236	-3.528145
Ge	-4.703688	0.000000	-4.704187
Ge	-2.351843	-2.352097	-7.056284
O	-1.057737	-1.057345	-5.761532
O	-5.761427	1.057345	-8.351036
O	-3.645950	-1.057345	-8.351036
O	-3.409582	1.294752	-5.998939
O	1.057740	1.057345	-5.761532
O	-3.409582	3.409431	-8.113619
O	-1.294105	3.409431	-5.998939
O	-1.294105	1.294752	-8.113619
Tm	-5.879606	-1.176048	-8.232332
Tm	1.175919	-1.176048	-5.880236
Tm	-1.175926	1.176048	-5.880236
Tm	-3.527771	1.176048	-8.232332
Ge	0.000000	4.704187	-4.704187
Ge	2.351845	2.352091	-7.056284
O	3.645952	3.646843	-5.761532
O	-1.057738	5.761532	-8.351036
O	1.057738	3.646843	-8.351036
O	1.294107	5.998939	-5.998939
O	5.761428	5.761532	-5.761532
O	1.294107	8.113619	-8.113619
O	3.409583	8.113619	-5.998939
O	3.409583	5.998939	-8.113619
Tm	-1.175917	3.528139	-8.232332
Tm	5.879607	3.528139	-5.880236
Tm	3.527762	5.880236	-5.880236
Tm	1.175917	5.880236	-8.232332
Ge	4.703688	-4.704187	0.000000
Ge	7.055533	-7.056284	-2.352097
O	8.349640	-5.761532	-1.057345
O	3.645950	-3.646843	-3.646849
O	5.761427	-5.761532	-3.646849
O	5.997795	-3.409435	-1.294752
O	10.465116	-3.646843	-1.057345
O	5.997795	-1.294756	-3.409431
O	8.113271	-1.294756	-1.294752
O	8.113271	-3.409435	-3.409431
Tm	3.527771	-5.880236	-3.528145
Tm	10.583296	-5.880236	-1.176048
Tm	8.231451	-3.528139	-1.176048
Tm	5.879606	-3.528139	-3.528145
Ge	9.407377	0.000000	0.000000
Ge	11.759221	-2.352097	-2.352097
O	13.053328	-1.057345	-1.057345
O	8.349638	1.057345	-3.646849
O	10.465115	-1.057345	-3.646849
O	10.701483	1.294752	-1.294752
O	15.168805	1.057345	-1.057345
O	10.701483	3.409431	-3.409431
O	12.816960	3.409431	-1.294752
O	12.816960	1.294752	-3.409431
Tm	8.231459	-1.176048	-3.528145
Tm	15.286984	-1.176048	-1.176048
Tm	12.935139	1.176048	-1.176048
Tm	10.583294	1.176048	-3.528145
Ge	0.000000	-4.704187	-4.704187
Ge	2.351845	-7.056284	-7.056284
O	3.645952	-5.761532	-5.761532
O	-1.057738	-3.646843	-8.351036
O	1.057738	-5.761532	-8.351036
O	1.294107	-3.409435	-5.998939
O	5.761428	-3.646843	-5.761532
O	1.294107	-1.294756	-8.113619
O	3.409583	-1.294756	-5.998939
O	3.409583	-3.409435	-8.113619
Tm	-1.175917	-5.880236	-8.232332
Tm	5.879607	-5.880236	-5.880236
Tm	3.527762	-3.528139	-5.880236
Tm	1.175917	-3.528139	-8.232332
Ge	4.703688	0.000000	-4.704187
Ge	7.055533	-2.352097	-7.056284
O	8.349640	-1.057345	-5.761532
O	3.645950	1.057345	-8.351036
O	5.761427	-1.057345	-8.351036
O	5.997795	1.294752	-5.998939
O	10.465116	1.057345	-5.761532
O	5.997795	3.409431	-8.113619
O	8.113271	3.409431	-5.998939
O	8.113271	1.294752	-8.113619
Tm	3.527771	-1.176048	-8.232332
Tm	10.583296	-1.176048	-5.880236
Tm	8.231451	1.176048	-5.880236
Tm	5.879606	1.176048	-8.232332
