232

La	-1.432181	-1.432181	1.432181
La	-1.432181	1.432181	-1.432181
La	1.432181	-1.432181	-1.432181
La	-3.088354	-3.088354	-3.088354
O	0.000000	0.000000	0.000000
O	-2.914459	-0.000000	0.000000
O	-6.126611	0.000000	-0.000000
O	-4.344477	1.435842	-1.961934
O	-5.956377	-2.558601	0.176058
O	-3.084694	-2.558601	-0.176058
O	-1.961934	-4.344477	1.435842
O	-0.000000	-2.914459	0.000000
O	-0.000000	0.000000	-2.914459
O	-2.558601	-0.176058	-3.084694
O	-4.696593	-1.435842	-1.961934
O	-0.176058	-3.084694	-2.558601
O	-2.558601	0.176058	-5.956377
O	0.000000	-6.126611	-0.000000
O	0.000000	-0.000000	-6.126611
O	-1.961934	-4.696593	-1.435842
O	1.435842	-1.961934	-4.344477
O	-1.435842	-1.961934	-4.696593
O	0.176058	-5.956377	-2.558601
Os	-4.520535	-1.242412	0.000000
Os	-4.520535	0.000000	-3.278123
Os	-3.278123	-4.520535	0.000000
Os	-1.242412	0.000000	-4.520535
Os	-0.000000	-4.520535	-1.242412
Os	-0.000000	-3.278123	-4.520535
La	3.088354	-5.952716	-3.088354
La	3.088354	-3.088354	-5.952716
La	5.952716	-5.952716	-5.952716
La	1.432181	-7.608889	-7.608889
O	4.520535	-4.520535	-4.520535
O	1.606076	-4.520535	-4.520535
O	-1.606076	-4.520535	-4.520535
O	0.176058	-3.084694	-6.482469
O	-1.435842	-7.079136	-4.344477
O	1.435842	-7.079136	-4.696593
O	2.558601	-8.865012	-3.084694
O	4.520535	-7.434995	-4.520535
O	4.520535	-4.520535	-7.434995
O	1.961934	-4.696593	-7.605229
O	-0.176058	-5.956377	-6.482469
O	4.344477	-7.605229	-7.079136
O	1.961934	-4.344477	-10.476912
O	4.520535	-10.647146	-4.520535
O	4.520535	-4.520535	-10.647146
O	2.558601	-9.217128	-5.956377
O	5.956377	-6.482469	-8.865012
O	3.084694	-6.482469	-9.217128
O	4.696593	-10.476912	-7.079136
Os	0.000000	-5.762948	-4.520535
Os	0.000000	-4.520535	-7.798658
Os	1.242412	-9.041070	-4.520535
Os	3.278123	-4.520535	-9.041070
Os	4.520535	-9.041070	-5.762948
Os	4.520535	-7.798658	-9.041070
La	-5.952716	3.088354	-3.088354
La	-5.952716	5.952716	-5.952716
La	-3.088354	3.088354	-5.952716
La	-7.608889	1.432181	-7.608889
O	-4.520535	4.520535	-4.520535
O	-7.434995	4.520535	-4.520535
O	-10.647146	4.520535	-4.520535
O	-8.865012	5.956377	-6.482469
O	-10.476912	1.961934	-4.344477
O	-7.605229	1.961934	-4.696593
O	-6.482469	0.176058	-3.084694
O	-4.520535	1.606076	-4.520535
O	-4.520535	4.520535	-7.434995
O	-7.079136	4.344477	-7.605229
O	-9.217128	3.084694	-6.482469
O	-4.696593	1.435842	-7.079136
O	-7.079136	4.696593	-10.476912
O	-4.520535	-1.606076	-4.520535
O	-4.520535	4.520535	-10.647146
O	-6.482469	-0.176058	-5.956377
O	-3.084694	2.558601	-8.865012
O	-5.956377	2.558601	-9.217128
O	-4.344477	-1.435842	-7.079136
Os	-9.041070	3.278123	-4.520535
Os	-9.041070	4.520535	-7.798658
Os	-7.798658	0.000000	-4.520535
Os	-5.762948	4.520535	-9.041070
Os	-4.520535	0.000000	-5.762948
Os	-4.520535	1.242412	-9.041070
La	-1.432181	-1.432181	-7.608889
La	-1.432181	1.432181	-10.473252
La	1.432181	-1.432181	-10.473252
La	-3.088354	-3.088354	-12.129424
O	0.000000	0.000000	-9.041070
O	-2.914459	0.000000	-9.041070
O	-6.126611	0.000000	-9.041070
O	-4.344477	1.435842	-11.003004
O	-5.956377	-2.558601	-8.865012
O	-3.084694	-2.558601	-9.217128
O	-1.961934	-4.344477	-7.605229
O	0.000000	-2.914459	-9.041070
O	0.000000	0.000000	-11.955530
O	-2.558601	-0.176058	-12.125764
O	-4.696593	-1.435842	-11.003004
O	-0.176058	-3.084694	-11.599671
O	-2.558601	0.176058	-14.997447
O	0.000000	-6.126611	-9.041070
O	0.000000	0.000000	-15.167681
O	-1.961934	-4.696593	-10.476912
O	1.435842	-1.961934	-13.385547
O	-1.435842	-1.961934	-13.737664
O	0.176058	-5.956377	-11.599671
Os	-4.520535	-1.242412	-9.041070
Os	-4.520535	0.000000	-12.319193
Os	-3.278123	-4.520535	-9.041070
Os	-1.242412	0.000000	-13.561605
Os	0.000000	-4.520535	-10.283483
Os	0.000000	-3.278123	-13.561605
La	-5.952716	-5.952716	5.952716
La	-5.952716	-3.088354	3.088354
La	-3.088354	-5.952716	3.088354
La	-7.608889	-7.608889	1.432181
O	-4.520535	-4.520535	4.520535
O	-7.434995	-4.520535	4.520535
O	-10.647146	-4.520535	4.520535
O	-8.865012	-3.084694	2.558601
O	-10.476912	-7.079136	4.696593
O	-7.605229	-7.079136	4.344477
O	-6.482469	-8.865012	5.956377
O	-4.520535	-7.434995	4.520535
O	-4.520535	-4.520535	1.606076
O	-7.079136	-4.696593	1.435842
O	-9.217128	-5.956377	2.558601
O	-4.696593	-7.605229	1.961934
O	-7.079136	-4.344477	-1.435842
O	-4.520535	-10.647146	4.520535
O	-4.520535	-4.520535	-1.606076
O	-6.482469	-9.217128	3.084694
O	-3.084694	-6.482469	0.176058
O	-5.956377	-6.482469	-0.176058
O	-4.344477	-10.476912	1.961934
Os	-9.041070	-5.762948	4.520535
Os	-9.041070	-4.520535	1.242412
Os	-7.798658	-9.041070	4.520535
Os	-5.762948	-4.520535	0.000000
Os	-4.520535	-9.041070	3.278123
Os	-4.520535	-7.798658	0.000000
La	-1.432181	-10.473252	1.432181
La	-1.432181	-7.608889	-1.432181
La	1.432181	-10.473252	-1.432181
La	-3.088354	-12.129424	-3.088354
O	0.000000	-9.041070	0.000000
O	-2.914459	-9.041070	0.000000
O	-6.126611	-9.041070	0.000000
O	-4.344477	-7.605229	-1.961934
O	-5.956377	-11.599671	0.176058
O	-3.084694	-11.599671	-0.176058
O	-1.961934	-13.385547	1.435842
O	0.000000	-11.955530	0.000000
O	0.000000	-9.041070	-2.914459
O	-2.558601	-9.217128	-3.084694
O	-4.696593	-10.476912	-1.961934
O	-0.176058	-12.125764	-2.558601
O	-2.558601	-8.865012	-5.956377
O	0.000000	-15.167681	0.000000
O	0.000000	-9.041070	-6.126611
O	-1.961934	-13.737664	-1.435842
O	1.435842	-11.003004	-4.344477
O	-1.435842	-11.003004	-4.696593
O	0.176058	-14.997447	-2.558601
Os	-4.520535	-10.283483	0.000000
Os	-4.520535	-9.041070	-3.278123
Os	-3.278123	-13.561605	0.000000
Os	-1.242412	-9.041070	-4.520535
Os	0.000000	-13.561605	-1.242412
Os	0.000000	-12.319193	-4.520535
La	-10.473252	-1.432181	1.432181
La	-10.473252	1.432181	-1.432181
La	-7.608889	-1.432181	-1.432181
La	-12.129424	-3.088354	-3.088354
O	-9.041070	0.000000	0.000000
O	-11.955530	0.000000	0.000000
O	-15.167681	0.000000	0.000000
O	-13.385547	1.435842	-1.961934
O	-14.997447	-2.558601	0.176058
O	-12.125764	-2.558601	-0.176058
O	-11.003004	-4.344477	1.435842
O	-9.041070	-2.914459	0.000000
O	-9.041070	0.000000	-2.914459
O	-11.599671	-0.176058	-3.084694
O	-13.737664	-1.435842	-1.961934
O	-9.217128	-3.084694	-2.558601
O	-11.599671	0.176058	-5.956377
O	-9.041070	-6.126611	0.000000
O	-9.041070	0.000000	-6.126611
O	-11.003004	-4.696593	-1.435842
O	-7.605229	-1.961934	-4.344477
O	-10.476912	-1.961934	-4.696593
O	-8.865012	-5.956377	-2.558601
Os	-13.561605	-1.242412	0.000000
Os	-13.561605	0.000000	-3.278123
Os	-12.319193	-4.520535	0.000000
Os	-10.283483	0.000000	-4.520535
Os	-9.041070	-4.520535	-1.242412
Os	-9.041070	-3.278123	-4.520535
La	-5.952716	-5.952716	-3.088354
La	-5.952716	-3.088354	-5.952716
La	-3.088354	-5.952716	-5.952716
La	-7.608889	-7.608889	-7.608889
O	-4.520535	-4.520535	-4.520535
O	-7.434995	-4.520535	-4.520535
O	-10.647146	-4.520535	-4.520535
O	-8.865012	-3.084694	-6.482469
O	-10.476912	-7.079136	-4.344477
O	-7.605229	-7.079136	-4.696593
O	-6.482469	-8.865012	-3.084694
O	-4.520535	-7.434995	-4.520535
O	-4.520535	-4.520535	-7.434995
O	-7.079136	-4.696593	-7.605229
O	-9.217128	-5.956377	-6.482469
O	-4.696593	-7.605229	-7.079136
O	-7.079136	-4.344477	-10.476912
O	-4.520535	-10.647146	-4.520535
O	-4.520535	-4.520535	-10.647146
O	-6.482469	-9.217128	-5.956377
O	-3.084694	-6.482469	-8.865012
O	-5.956377	-6.482469	-9.217128
O	-4.344477	-10.476912	-7.079136
Os	-9.041070	-5.762948	-4.520535
Os	-9.041070	-4.520535	-7.798658
Os	-7.798658	-9.041070	-4.520535
Os	-5.762948	-4.520535	-9.041070
Os	-4.520535	-9.041070	-5.762948
Os	-4.520535	-7.798658	-9.041070
