40

Co	1.888595	1.888595	1.888595
La	0.000000	0.000000	0.000000
O	1.888595	1.888595	0.000000
O	1.888595	0.000000	1.888595
O	0.000000	1.888595	1.888595
Co	1.888595	1.888595	5.665790
La	0.000000	0.000000	3.777195
O	1.888595	1.888595	3.777195
O	1.888595	0.000000	5.665790
O	0.000000	1.888595	5.665790
Co	1.888595	5.665790	1.888595
La	0.000000	3.777195	0.000000
O	1.888595	5.665790	0.000000
O	1.888595	3.777195	1.888595
O	0.000000	5.665790	1.888595
Co	1.888595	5.665790	5.665790
La	0.000000	3.777195	3.777195
O	1.888595	5.665790	3.777195
O	1.888595	3.777195	5.665790
O	0.000000	5.665790	5.665790
Co	5.665790	1.888595	1.888595
La	3.777195	0.000000	0.000000
O	5.665790	1.888595	0.000000
O	5.665790	0.000000	1.888595
O	3.777195	1.888595	1.888595
Co	5.665790	1.888595	5.665790
La	3.777195	0.000000	3.777195
O	5.665790	1.888595	3.777195
O	5.665790	0.000000	5.665790
O	3.777195	1.888595	5.665790
Co	5.665790	5.665790	1.888595
La	3.777195	3.777195	0.000000
O	5.665790	5.665790	0.000000
O	5.665790	3.777195	1.888595
O	3.777195	5.665790	1.888595
Co	5.665790	5.665790	5.665790
La	3.777195	3.777195	3.777195
O	5.665790	5.665790	3.777195
O	5.665790	3.777195	5.665790
O	3.777195	5.665790	5.665790
