40

Co	1.830340	1.830340	1.830340
Ga_d	0.000000	0.000000	0.000000
O	1.830340	1.830340	0.000000
O	0.000000	1.830340	1.830340
O	1.830340	0.000000	1.830340
Co	1.830340	1.830340	5.491016
Ga_d	0.000000	0.000000	3.660676
O	1.830340	1.830340	3.660676
O	0.000000	1.830340	5.491016
O	1.830340	0.000000	5.491016
Co	1.830340	5.491016	1.830340
Ga_d	0.000000	3.660676	0.000000
O	1.830340	5.491016	0.000000
O	0.000000	5.491016	1.830340
O	1.830340	3.660676	1.830340
Co	1.830340	5.491016	5.491016
Ga_d	0.000000	3.660676	3.660676
O	1.830340	5.491016	3.660676
O	0.000000	5.491016	5.491016
O	1.830340	3.660676	5.491016
Co	5.491016	1.830340	1.830340
Ga_d	3.660676	0.000000	0.000000
O	5.491016	1.830340	0.000000
O	3.660676	1.830340	1.830340
O	5.491016	0.000000	1.830340
Co	5.491016	1.830340	5.491016
Ga_d	3.660676	0.000000	3.660676
O	5.491016	1.830340	3.660676
O	3.660676	1.830340	5.491016
O	5.491016	0.000000	5.491016
Co	5.491016	5.491016	1.830340
Ga_d	3.660676	3.660676	0.000000
O	5.491016	5.491016	0.000000
O	3.660676	5.491016	1.830340
O	5.491016	3.660676	1.830340
Co	5.491016	5.491016	5.491016
Ga_d	3.660676	3.660676	3.660676
O	5.491016	5.491016	3.660676
O	3.660676	5.491016	5.491016
O	5.491016	3.660676	5.491016
