40

B	1.662280	1.662280	1.662280
Fe	0.000000	0.000000	0.000000
O	1.662280	1.662280	0.000000
O	0.000000	1.662280	1.662280
O	1.662280	0.000000	1.662280
B	1.662280	1.662280	4.986832
Fe	0.000000	0.000000	3.324552
O	1.662280	1.662280	3.324552
O	0.000000	1.662280	4.986832
O	1.662280	0.000000	4.986832
B	1.662280	4.986832	1.662280
Fe	0.000000	3.324552	0.000000
O	1.662280	4.986832	0.000000
O	0.000000	4.986832	1.662280
O	1.662280	3.324552	1.662280
B	1.662280	4.986832	4.986832
Fe	0.000000	3.324552	3.324552
O	1.662280	4.986832	3.324552
O	0.000000	4.986832	4.986832
O	1.662280	3.324552	4.986832
B	4.986832	1.662280	1.662280
Fe	3.324552	0.000000	0.000000
O	4.986832	1.662280	0.000000
O	3.324552	1.662280	1.662280
O	4.986832	0.000000	1.662280
B	4.986832	1.662280	4.986832
Fe	3.324552	0.000000	3.324552
O	4.986832	1.662280	3.324552
O	3.324552	1.662280	4.986832
O	4.986832	0.000000	4.986832
B	4.986832	4.986832	1.662280
Fe	3.324552	3.324552	0.000000
O	4.986832	4.986832	0.000000
O	3.324552	4.986832	1.662280
O	4.986832	3.324552	1.662280
B	4.986832	4.986832	4.986832
Fe	3.324552	3.324552	3.324552
O	4.986832	4.986832	3.324552
O	3.324552	4.986832	4.986832
O	4.986832	3.324552	4.986832
