40

Hf	2.110282	2.110282	2.110282
O	2.110282	2.110282	0.000000
O	2.110282	0.000000	2.110282
O	0.000000	2.110282	2.110282
Rb	0.000000	0.000000	0.000000
Hf	2.110282	2.110282	6.330847
O	2.110282	2.110282	4.220565
O	2.110282	0.000000	6.330847
O	0.000000	2.110282	6.330847
Rb	0.000000	0.000000	4.220565
Hf	2.110282	6.330847	2.110282
O	2.110282	6.330847	0.000000
O	2.110282	4.220565	2.110282
O	0.000000	6.330847	2.110282
Rb	0.000000	4.220565	0.000000
Hf	2.110282	6.330847	6.330847
O	2.110282	6.330847	4.220565
O	2.110282	4.220565	6.330847
O	0.000000	6.330847	6.330847
Rb	0.000000	4.220565	4.220565
Hf	6.330847	2.110282	2.110282
O	6.330847	2.110282	0.000000
O	6.330847	0.000000	2.110282
O	4.220565	2.110282	2.110282
Rb	4.220565	0.000000	0.000000
Hf	6.330847	2.110282	6.330847
O	6.330847	2.110282	4.220565
O	6.330847	0.000000	6.330847
O	4.220565	2.110282	6.330847
Rb	4.220565	0.000000	4.220565
Hf	6.330847	6.330847	2.110282
O	6.330847	6.330847	0.000000
O	6.330847	4.220565	2.110282
O	4.220565	6.330847	2.110282
Rb	4.220565	4.220565	0.000000
Hf	6.330847	6.330847	6.330847
O	6.330847	6.330847	4.220565
O	6.330847	4.220565	6.330847
O	4.220565	6.330847	6.330847
Rb	4.220565	4.220565	4.220565
