176

O	5.351635	3.784178	9.269304
O	3.210981	2.270507	5.561582
O	4.057989	5.613669	11.509965
O	1.917335	4.099998	7.802243
O	6.645281	1.954686	11.509965
O	7.938927	5.613669	9.269304
O	2.764343	1.954686	9.269304
O	4.057989	5.613669	7.028644
O	6.645281	1.954686	7.028644
O	5.798273	4.099998	5.561582
O	0.623689	0.441015	5.561582
O	4.504627	0.441015	3.320922
O	4.504627	0.441015	7.802243
O	1.917335	4.099998	3.320922
Ti	1.070327	3.027342	1.853861
Ti	3.210981	0.000000	1.853861
Ti	0.000000	0.000000	3.707722
Ti	0.000000	0.000000	0.000000
La	3.210981	0.000000	5.561582
La	1.070327	3.027342	5.561582
La	4.281308	3.027342	3.707722
La	4.281308	3.027342	7.415443
O	5.351635	3.784178	16.684747
O	3.210981	2.270507	12.977026
O	4.057989	5.613669	18.925408
O	1.917335	4.099998	15.217686
O	6.645281	1.954686	18.925408
O	7.938927	5.613669	16.684747
O	2.764343	1.954686	16.684747
O	4.057989	5.613669	14.444087
O	6.645281	1.954686	14.444087
O	5.798273	4.099998	12.977026
O	0.623689	0.441015	12.977026
O	4.504627	0.441015	10.736365
O	4.504627	0.441015	15.217686
O	1.917335	4.099998	10.736365
Ti	1.070327	3.027342	9.269304
Ti	3.210981	0.000000	9.269304
Ti	0.000000	0.000000	11.123165
Ti	0.000000	0.000000	7.415443
La	3.210981	0.000000	12.977026
La	1.070327	3.027342	12.977026
La	4.281308	3.027342	11.123165
La	4.281308	3.027342	14.830887
O	7.492289	9.838862	12.977026
O	5.351635	8.325191	9.269304
O	6.198643	11.668353	15.217686
O	4.057989	10.154682	11.509965
O	8.785935	8.009370	15.217686
O	10.079581	11.668353	12.977026
O	4.904998	8.009370	12.977026
O	6.198643	11.668353	10.736365
O	8.785935	8.009370	10.736365
O	7.938927	10.154682	9.269304
O	2.764343	6.495699	9.269304
O	6.645281	6.495699	7.028644
O	6.645281	6.495699	11.509965
O	4.057989	10.154682	7.028644
Ti	3.210981	9.082026	5.561582
Ti	5.351635	6.054684	5.561582
Ti	2.140654	6.054684	7.415443
Ti	2.140654	6.054684	3.707722
La	5.351635	6.054684	9.269304
La	3.210981	9.082026	9.269304
La	6.421962	9.082026	7.415443
La	6.421962	9.082026	11.123165
O	7.492289	9.838862	20.392469
O	5.351635	8.325191	16.684747
O	6.198643	11.668353	22.633129
O	4.057989	10.154682	18.925408
O	8.785935	8.009370	22.633129
O	10.079581	11.668353	20.392469
O	4.904998	8.009370	20.392469
O	6.198643	11.668353	18.151809
O	8.785935	8.009370	18.151809
O	7.938927	10.154682	16.684747
O	2.764343	6.495699	16.684747
O	6.645281	6.495699	14.444087
O	6.645281	6.495699	18.925408
O	4.057989	10.154682	14.444087
Ti	3.210981	9.082026	12.977026
Ti	5.351635	6.054684	12.977026
Ti	2.140654	6.054684	14.830887
Ti	2.140654	6.054684	11.123165
La	5.351635	6.054684	16.684747
La	3.210981	9.082026	16.684747
La	6.421962	9.082026	14.830887
La	6.421962	9.082026	18.538608
O	11.773597	3.784178	12.977026
O	9.632943	2.270507	9.269304
O	10.479952	5.613669	15.217686
O	8.339297	4.099998	11.509965
O	13.067243	1.954686	15.217686
O	14.360889	5.613669	12.977026
O	9.186306	1.954686	12.977026
O	10.479952	5.613669	10.736365
O	13.067243	1.954686	10.736365
O	12.220235	4.099998	9.269304
O	7.045652	0.441015	9.269304
O	10.926589	0.441015	7.028644
O	10.926589	0.441015	11.509965
O	8.339297	4.099998	7.028644
Ti	7.492289	3.027342	5.561582
Ti	9.632943	0.000000	5.561582
Ti	6.421962	0.000000	7.415443
Ti	6.421962	0.000000	3.707722
La	9.632943	0.000000	9.269304
La	7.492289	3.027342	9.269304
La	10.703270	3.027342	7.415443
La	10.703270	3.027342	11.123165
O	11.773597	3.784178	20.392469
O	9.632943	2.270507	16.684747
O	10.479952	5.613669	22.633129
O	8.339297	4.099998	18.925408
O	13.067243	1.954686	22.633129
O	14.360889	5.613669	20.392469
O	9.186306	1.954686	20.392469
O	10.479952	5.613669	18.151809
O	13.067243	1.954686	18.151809
O	12.220235	4.099998	16.684747
O	7.045652	0.441015	16.684747
O	10.926589	0.441015	14.444087
O	10.926589	0.441015	18.925408
O	8.339297	4.099998	14.444087
Ti	7.492289	3.027342	12.977026
Ti	9.632943	0.000000	12.977026
Ti	6.421962	0.000000	14.830887
Ti	6.421962	0.000000	11.123165
La	9.632943	0.000000	16.684747
La	7.492289	3.027342	16.684747
La	10.703270	3.027342	14.830887
La	10.703270	3.027342	18.538608
O	13.914252	9.838862	16.684747
O	11.773597	8.325191	12.977026
O	12.620606	11.668353	18.925408
O	10.479952	10.154682	15.217686
O	15.207897	8.009370	18.925408
O	16.501543	11.668353	16.684747
O	11.326960	8.009370	16.684747
O	12.620606	11.668353	14.444087
O	15.207897	8.009370	14.444087
O	14.360889	10.154682	12.977026
O	9.186306	6.495699	12.977026
O	13.067243	6.495699	10.736365
O	13.067243	6.495699	15.217686
O	10.479952	10.154682	10.736365
Ti	9.632943	9.082026	9.269304
Ti	11.773597	6.054684	9.269304
Ti	8.562616	6.054684	11.123165
Ti	8.562616	6.054684	7.415443
La	11.773597	6.054684	12.977026
La	9.632943	9.082026	12.977026
La	12.843925	9.082026	11.123165
La	12.843925	9.082026	14.830887
O	13.914252	9.838862	24.100191
O	11.773597	8.325191	20.392469
O	12.620606	11.668353	26.340851
O	10.479952	10.154682	22.633129
O	15.207897	8.009370	26.340851
O	16.501543	11.668353	24.100191
O	11.326960	8.009370	24.100191
O	12.620606	11.668353	21.859530
O	15.207897	8.009370	21.859530
O	14.360889	10.154682	20.392469
O	9.186306	6.495699	20.392469
O	13.067243	6.495699	18.151809
O	13.067243	6.495699	22.633129
O	10.479952	10.154682	18.151809
Ti	9.632943	9.082026	16.684747
Ti	11.773597	6.054684	16.684747
Ti	8.562616	6.054684	18.538608
Ti	8.562616	6.054684	14.830887
La	11.773597	6.054684	20.392469
La	9.632943	9.082026	20.392469
La	12.843925	9.082026	18.538608
La	12.843925	9.082026	22.246330
