40

O	0.000000	1.991666	1.991666
O	1.991666	0.000000	1.991666
O	1.991666	1.991666	0.000000
Rh	1.991666	1.991666	1.991666
Tl	0.000000	0.000000	0.000000
O	0.000000	1.991666	5.974997
O	1.991666	0.000000	5.974997
O	1.991666	1.991666	3.983332
Rh	1.991666	1.991666	5.974997
Tl	0.000000	0.000000	3.983332
O	0.000000	5.974997	1.991666
O	1.991666	3.983332	1.991666
O	1.991666	5.974997	0.000000
Rh	1.991666	5.974997	1.991666
Tl	0.000000	3.983332	0.000000
O	0.000000	5.974997	5.974997
O	1.991666	3.983332	5.974997
O	1.991666	5.974997	3.983332
Rh	1.991666	5.974997	5.974997
Tl	0.000000	3.983332	3.983332
O	3.983332	1.991666	1.991666
O	5.974997	0.000000	1.991666
O	5.974997	1.991666	0.000000
Rh	5.974997	1.991666	1.991666
Tl	3.983332	0.000000	0.000000
O	3.983332	1.991666	5.974997
O	5.974997	0.000000	5.974997
O	5.974997	1.991666	3.983332
Rh	5.974997	1.991666	5.974997
Tl	3.983332	0.000000	3.983332
O	3.983332	5.974997	1.991666
O	5.974997	3.983332	1.991666
O	5.974997	5.974997	0.000000
Rh	5.974997	5.974997	1.991666
Tl	3.983332	3.983332	0.000000
O	3.983332	5.974997	5.974997
O	5.974997	3.983332	5.974997
O	5.974997	5.974997	3.983332
Rh	5.974997	5.974997	5.974997
Tl	3.983332	3.983332	3.983332
