40

Ge	1.895770	1.895770	1.895770
O	1.895770	1.895770	0.000000
O	0.000000	1.895770	1.895770
O	1.895770	0.000000	1.895770
W	0.000000	0.000000	0.000000
Ge	1.895770	1.895770	5.687311
O	1.895770	1.895770	3.791541
O	0.000000	1.895770	5.687311
O	1.895770	0.000000	5.687311
W	0.000000	0.000000	3.791541
Ge	1.895770	5.687311	1.895770
O	1.895770	5.687311	0.000000
O	0.000000	5.687311	1.895770
O	1.895770	3.791541	1.895770
W	0.000000	3.791541	0.000000
Ge	1.895770	5.687311	5.687311
O	1.895770	5.687311	3.791541
O	0.000000	5.687311	5.687311
O	1.895770	3.791541	5.687311
W	0.000000	3.791541	3.791541
Ge	5.687311	1.895770	1.895770
O	5.687311	1.895770	0.000000
O	3.791541	1.895770	1.895770
O	5.687311	0.000000	1.895770
W	3.791541	0.000000	0.000000
Ge	5.687311	1.895770	5.687311
O	5.687311	1.895770	3.791541
O	3.791541	1.895770	5.687311
O	5.687311	0.000000	5.687311
W	3.791541	0.000000	3.791541
Ge	5.687311	5.687311	1.895770
O	5.687311	5.687311	0.000000
O	3.791541	5.687311	1.895770
O	5.687311	3.791541	1.895770
W	3.791541	3.791541	0.000000
Ge	5.687311	5.687311	5.687311
O	5.687311	5.687311	3.791541
O	3.791541	5.687311	5.687311
O	5.687311	3.791541	5.687311
W	3.791541	3.791541	3.791541
