112

Fe	2.060141	-2.060141	0.000000
Fe	4.120282	0.000000	0.000000
Fe	0.000000	2.060141	-2.060141
Fe	2.060141	0.000000	-2.060141
O	-0.071538	-0.071538	-1.988603
O	1.988603	-2.131679	-2.131679
O	-2.131679	0.071538	-4.048744
O	0.071538	-2.131679	-4.048744
O	4.048744	2.131679	-0.071538
O	6.251960	-0.071538	-0.071538
O	2.131679	2.131679	-1.988603
O	4.191820	0.071538	-2.131679
Si	1.030070	-3.090211	-3.090211
Si	3.090211	3.090211	-1.030070
Fe	6.180423	2.060141	0.000000
Fe	8.240564	4.120282	0.000000
Fe	4.120282	6.180423	-2.060141
Fe	6.180423	4.120282	-2.060141
O	4.048744	4.048744	-1.988603
O	6.108885	1.988603	-2.131679
O	1.988603	4.191820	-4.048744
O	4.191820	1.988603	-4.048744
O	8.169026	6.251960	-0.071538
O	10.372242	4.048744	-0.071538
O	6.251960	6.251960	-1.988603
O	8.312101	4.191820	-2.131679
Si	5.150352	1.030070	-3.090211
Si	7.210493	7.210493	-1.030070
Fe	-2.060141	-2.060141	-4.120282
Fe	0.000000	0.000000	-4.120282
Fe	-4.120282	2.060141	-6.180423
Fe	-2.060141	0.000000	-6.180423
O	-4.191820	-0.071538	-6.108885
O	-2.131679	-2.131679	-6.251960
O	-6.251960	0.071538	-8.169026
O	-4.048744	-2.131679	-8.169026
O	-0.071538	2.131679	-4.191820
O	2.131679	-0.071538	-4.191820
O	-1.988603	2.131679	-6.108885
O	0.071538	0.071538	-6.251960
Si	-3.090211	-3.090211	-7.210493
Si	-1.030070	3.090211	-5.150352
Fe	2.060141	2.060141	-4.120282
Fe	4.120282	4.120282	-4.120282
Fe	0.000000	6.180423	-6.180423
Fe	2.060141	4.120282	-6.180423
O	-0.071538	4.048744	-6.108885
O	1.988603	1.988603	-6.251960
O	-2.131679	4.191820	-8.169026
O	0.071538	1.988603	-8.169026
O	4.048744	6.251960	-4.191820
O	6.251960	4.048744	-4.191820
O	2.131679	6.251960	-6.108885
O	4.191820	4.191820	-6.251960
Si	1.030070	1.030070	-7.210493
Si	3.090211	7.210493	-5.150352
Fe	6.180423	-6.180423	0.000000
Fe	8.240564	-4.120282	0.000000
Fe	4.120282	-2.060141	-2.060141
Fe	6.180423	-4.120282	-2.060141
O	4.048744	-4.191820	-1.988603
O	6.108885	-6.251960	-2.131679
O	1.988603	-4.048744	-4.048744
O	4.191820	-6.251960	-4.048744
O	8.169026	-1.988603	-0.071538
O	10.372242	-4.191820	-0.071538
O	6.251960	-1.988603	-1.988603
O	8.312101	-4.048744	-2.131679
Si	5.150352	-7.210493	-3.090211
Si	7.210493	-1.030070	-1.030070
Fe	10.300705	-2.060141	0.000000
Fe	12.360846	0.000000	0.000000
Fe	8.240564	2.060141	-2.060141
Fe	10.300705	0.000000	-2.060141
O	8.169026	-0.071538	-1.988603
O	10.229167	-2.131679	-2.131679
O	6.108885	0.071538	-4.048744
O	8.312101	-2.131679	-4.048744
O	12.289308	2.131679	-0.071538
O	14.492524	-0.071538	-0.071538
O	10.372242	2.131679	-1.988603
O	12.432383	0.071538	-2.131679
Si	9.270634	-3.090211	-3.090211
Si	11.330775	3.090211	-1.030070
Fe	2.060141	-6.180423	-4.120282
Fe	4.120282	-4.120282	-4.120282
Fe	0.000000	-2.060141	-6.180423
Fe	2.060141	-4.120282	-6.180423
O	-0.071538	-4.191820	-6.108885
O	1.988603	-6.251960	-6.251960
O	-2.131679	-4.048744	-8.169026
O	0.071538	-6.251960	-8.169026
O	4.048744	-1.988603	-4.191820
O	6.251960	-4.191820	-4.191820
O	2.131679	-1.988603	-6.108885
O	4.191820	-4.048744	-6.251960
Si	1.030070	-7.210493	-7.210493
Si	3.090211	-1.030070	-5.150352
Fe	6.180423	-2.060141	-4.120282
Fe	8.240564	0.000000	-4.120282
Fe	4.120282	2.060141	-6.180423
Fe	6.180423	0.000000	-6.180423
O	4.048744	-0.071538	-6.108885
O	6.108885	-2.131679	-6.251960
O	1.988603	0.071538	-8.169026
O	4.191820	-2.131679	-8.169026
O	8.169026	2.131679	-4.191820
O	10.372242	-0.071538	-4.191820
O	6.251960	2.131679	-6.108885
O	8.312101	0.071538	-6.251960
Si	5.150352	-3.090211	-7.210493
Si	7.210493	3.090211	-5.150352
