112

Be	0.000000	0.000000	0.000000
Be	2.025547	-2.025781	-2.025781
O	0.917877	0.918019	-0.918019
O	2.943424	-1.107762	-1.107762
O	-1.107669	1.107762	-2.943800
O	1.107669	-1.107762	-2.943800
O	0.917877	3.133543	-3.133543
O	3.133216	3.133543	-0.918019
O	3.133216	0.918019	-3.133543
O	5.158762	1.107762	-1.107762
W	-1.012778	-1.012890	-3.038671
W	5.063871	-1.012890	-1.012890
W	3.038325	1.012890	-1.012890
W	1.012778	1.012890	-3.038671
Be	4.051095	4.051561	0.000000
Be	6.076641	2.025780	-2.025781
O	4.968972	4.969580	-0.918019
O	6.994519	2.943799	-1.107762
O	2.943426	5.159323	-2.943800
O	5.158764	2.943799	-2.943800
O	4.968972	7.185103	-3.133543
O	7.184311	7.185103	-0.918019
O	7.184311	4.969580	-3.133543
O	9.209857	5.159322	-1.107762
W	3.038317	3.038670	-3.038671
W	9.114966	3.038670	-1.012890
W	7.089420	5.064451	-1.012890
W	5.063873	5.064451	-3.038671
Be	-4.051095	0.000000	-4.051561
Be	-2.025548	-2.025781	-6.077342
O	-3.133217	0.918019	-4.969580
O	-1.107671	-1.107762	-5.159323
O	-5.158764	1.107762	-6.995361
O	-2.943426	-1.107762	-6.995361
O	-3.133217	3.133543	-7.185103
O	-0.917879	3.133543	-4.969580
O	-0.917879	0.918019	-7.185103
O	1.107667	1.107762	-5.159323
W	-5.063873	-1.012890	-7.090232
W	1.012777	-1.012890	-5.064451
W	-1.012770	1.012890	-5.064451
W	-3.038317	1.012890	-7.090232
Be	0.000000	4.051561	-4.051561
Be	2.025547	2.025780	-6.077342
O	0.917877	4.969580	-4.969580
O	2.943424	2.943799	-5.159323
O	-1.107669	5.159323	-6.995361
O	1.107669	2.943799	-6.995361
O	0.917877	7.185103	-7.185103
O	3.133216	7.185103	-4.969580
O	3.133216	4.969580	-7.185103
O	5.158762	5.159322	-5.159323
W	-1.012778	3.038670	-7.090232
W	5.063871	3.038670	-5.064451
W	3.038325	5.064451	-5.064451
W	1.012778	5.064451	-7.090232
Be	4.051095	-4.051561	0.000000
Be	6.076641	-6.077342	-2.025781
O	4.968972	-3.133542	-0.918019
O	6.994519	-5.159323	-1.107762
O	2.943426	-2.943799	-2.943800
O	5.158764	-5.159323	-2.943800
O	4.968972	-0.918018	-3.133543
O	7.184311	-0.918018	-0.918019
O	7.184311	-3.133542	-3.133543
O	9.209857	-2.943799	-1.107762
W	3.038317	-5.064451	-3.038671
W	9.114966	-5.064451	-1.012890
W	7.089420	-3.038670	-1.012890
W	5.063873	-3.038670	-3.038671
Be	8.102190	0.000000	0.000000
Be	10.127736	-2.025781	-2.025781
O	9.020067	0.918019	-0.918019
O	11.045614	-1.107762	-1.107762
O	6.994521	1.107762	-2.943800
O	9.209859	-1.107762	-2.943800
O	9.020067	3.133543	-3.133543
O	11.235406	3.133543	-0.918019
O	11.235405	0.918019	-3.133543
O	13.260952	1.107762	-1.107762
W	7.089411	-1.012890	-3.038671
W	13.166061	-1.012890	-1.012890
W	11.140515	1.012890	-1.012890
W	9.114968	1.012890	-3.038671
Be	0.000000	-4.051561	-4.051561
Be	2.025547	-6.077342	-6.077342
O	0.917877	-3.133542	-4.969580
O	2.943424	-5.159323	-5.159323
O	-1.107669	-2.943799	-6.995361
O	1.107669	-5.159323	-6.995361
O	0.917877	-0.918018	-7.185103
O	3.133216	-0.918018	-4.969580
O	3.133216	-3.133542	-7.185103
O	5.158762	-2.943799	-5.159323
W	-1.012778	-5.064451	-7.090232
W	5.063871	-5.064451	-5.064451
W	3.038325	-3.038670	-5.064451
W	1.012778	-3.038670	-7.090232
Be	4.051095	0.000000	-4.051561
Be	6.076641	-2.025781	-6.077342
O	4.968972	0.918019	-4.969580
O	6.994519	-1.107762	-5.159323
O	2.943426	1.107762	-6.995361
O	5.158764	-1.107762	-6.995361
O	4.968972	3.133543	-7.185103
O	7.184311	3.133543	-4.969580
O	7.184311	0.918019	-7.185103
O	9.209857	1.107762	-5.159323
W	3.038317	-1.012890	-7.090232
W	9.114966	-1.012890	-5.064451
W	7.089420	1.012890	-5.064451
W	5.063873	1.012890	-7.090232
