112

Be	0.000000	0.000000	0.000000
Be	2.034811	-2.034499	-2.034499
O	2.958002	-1.111102	-1.111102
O	-1.111619	1.111102	-2.957897
O	1.111619	-1.111102	-2.957897
O	0.923192	0.923398	-0.923398
O	5.181241	1.111102	-1.111102
O	0.923192	3.145601	-3.145601
O	3.146430	3.145601	-0.923398
O	3.146430	0.923398	-3.145601
W	-1.017405	-1.017250	-3.051749
W	3.052216	1.017250	-1.017250
W	5.087027	-1.017250	-1.017250
W	1.017405	1.017250	-3.051749
Be	4.069622	4.068999	0.000000
Be	6.104433	2.034499	-2.034499
O	7.027624	2.957897	-1.111102
O	2.958002	5.180101	-2.957897
O	5.181241	2.957897	-2.957897
O	4.992813	4.992396	-0.923398
O	9.250863	5.180101	-1.111102
O	4.992813	7.214600	-3.145601
O	7.216052	7.214600	-0.923398
O	7.216052	4.992396	-3.145601
W	3.052216	3.051749	-3.051749
W	7.121838	5.086248	-1.017250
W	9.156649	3.051749	-1.017250
W	5.087027	5.086248	-3.051749
Be	-4.069622	0.000000	-4.068999
Be	-2.034811	-2.034499	-6.103498
O	-1.111619	-1.111102	-5.180100
O	-5.181241	1.111102	-7.026896
O	-2.958002	-1.111102	-7.026896
O	-3.146430	0.923398	-4.992396
O	1.111619	1.111102	-5.180100
O	-3.146430	3.145601	-7.214600
O	-0.923192	3.145601	-4.992396
O	-0.923192	0.923398	-7.214600
W	-5.087027	-1.017250	-7.120748
W	-1.017405	1.017250	-5.086248
W	1.017405	-1.017250	-5.086248
W	-3.052216	1.017250	-7.120748
Be	0.000000	4.068999	-4.068999
Be	2.034811	2.034499	-6.103498
O	2.958002	2.957897	-5.180100
O	-1.111619	5.180101	-7.026896
O	1.111619	2.957897	-7.026896
O	0.923192	4.992396	-4.992396
O	5.181241	5.180101	-5.180100
O	0.923192	7.214600	-7.214600
O	3.146430	7.214600	-4.992396
O	3.146430	4.992396	-7.214600
W	-1.017405	3.051749	-7.120748
W	3.052216	5.086248	-5.086248
W	5.087027	3.051749	-5.086248
W	1.017405	5.086248	-7.120748
Be	4.069622	-4.068999	0.000000
Be	6.104433	-6.103498	-2.034499
O	7.027624	-5.180100	-1.111102
O	2.958002	-2.957897	-2.957897
O	5.181241	-5.180100	-2.957897
O	4.992813	-3.145601	-0.923398
O	9.250863	-2.957897	-1.111102
O	4.992813	-0.923398	-3.145601
O	7.216052	-0.923398	-0.923398
O	7.216052	-3.145601	-3.145601
W	3.052216	-5.086248	-3.051749
W	7.121838	-3.051749	-1.017250
W	9.156649	-5.086248	-1.017250
W	5.087027	-3.051749	-3.051749
Be	8.139243	0.000000	0.000000
Be	10.174054	-2.034499	-2.034499
O	11.097246	-1.111102	-1.111102
O	7.027624	1.111102	-2.957897
O	9.250863	-1.111102	-2.957897
O	9.062435	0.923398	-0.923398
O	13.320485	1.111102	-1.111102
O	9.062435	3.145601	-3.145601
O	11.285674	3.145601	-0.923398
O	11.285674	0.923398	-3.145601
W	7.121838	-1.017250	-3.051749
W	11.191460	1.017250	-1.017250
W	13.226271	-1.017250	-1.017250
W	9.156649	1.017250	-3.051749
Be	0.000000	-4.068999	-4.068999
Be	2.034811	-6.103498	-6.103498
O	2.958002	-5.180100	-5.180100
O	-1.111619	-2.957897	-7.026896
O	1.111619	-5.180100	-7.026896
O	0.923192	-3.145601	-4.992396
O	5.181241	-2.957897	-5.180100
O	0.923192	-0.923398	-7.214600
O	3.146430	-0.923398	-4.992396
O	3.146430	-3.145601	-7.214600
W	-1.017405	-5.086248	-7.120748
W	3.052216	-3.051749	-5.086248
W	5.087027	-5.086248	-5.086248
W	1.017405	-3.051749	-7.120748
Be	4.069622	0.000000	-4.068999
Be	6.104433	-2.034499	-6.103498
O	7.027624	-1.111102	-5.180100
O	2.958002	1.111102	-7.026896
O	5.181241	-1.111102	-7.026896
O	4.992813	0.923398	-4.992396
O	9.250863	1.111102	-5.180100
O	4.992813	3.145601	-7.214600
O	7.216052	3.145601	-4.992396
O	7.216052	0.923398	-7.214600
W	3.052216	-1.017250	-7.120748
W	7.121838	1.017250	-5.086248
W	9.156649	-1.017250	-5.086248
W	5.087027	1.017250	-7.120748
