112

Ag	0.000000	0.000000	0.000000
Ag	2.404879	-2.405733	-2.405733
O	3.741754	-1.067854	-1.067854
O	-1.068005	1.067854	-3.743612
O	1.068004	-1.067854	-3.743612
O	1.336875	1.337879	-1.337879
O	5.877763	1.067854	-1.067854
O	1.336875	3.473587	-3.473587
O	3.472884	3.473587	-1.337879
O	3.472884	1.337879	-3.473587
Y	-1.202440	-1.202866	-3.608599
Y	3.607319	1.202866	-1.202866
Y	6.012198	-1.202866	-1.202866
Y	1.202440	1.202866	-3.608599
Ag	4.809758	4.811466	0.000000
Ag	7.214638	2.405733	-2.405733
O	8.551512	3.743611	-1.067854
O	3.741754	5.879320	-3.743612
O	5.877763	3.743611	-3.743612
O	6.146633	6.149345	-1.337879
O	10.687521	5.879320	-1.067854
O	6.146633	8.285053	-3.473587
O	8.282642	8.285053	-1.337879
O	8.282642	6.149345	-3.473587
Y	3.607319	3.608599	-3.608599
Y	8.417077	6.014332	-1.202866
Y	10.821956	3.608599	-1.202866
Y	6.012198	6.014332	-3.608599
Ag	-4.809758	0.000000	-4.811466
Ag	-2.404879	-2.405733	-7.217199
O	-1.068004	-1.067854	-5.879320
O	-5.877763	1.067854	-8.555077
O	-3.741754	-1.067854	-8.555077
O	-3.472884	1.337879	-6.149345
O	1.068005	1.067854	-5.879320
O	-3.472884	3.473587	-8.285053
O	-1.336875	3.473587	-6.149345
O	-1.336875	1.337879	-8.285053
Y	-6.012198	-1.202866	-8.420065
Y	-1.202440	1.202866	-6.014332
Y	1.202440	-1.202866	-6.014332
Y	-3.607319	1.202866	-8.420065
Ag	0.000000	4.811466	-4.811466
Ag	2.404879	2.405733	-7.217199
O	3.741754	3.743611	-5.879320
O	-1.068005	5.879320	-8.555077
O	1.068004	3.743611	-8.555077
O	1.336875	6.149345	-6.149345
O	5.877763	5.879320	-5.879320
O	1.336875	8.285053	-8.285053
O	3.472884	8.285053	-6.149345
O	3.472884	6.149345	-8.285053
Y	-1.202440	3.608599	-8.420065
Y	3.607319	6.014332	-6.014332
Y	6.012198	3.608599	-6.014332
Y	1.202440	6.014332	-8.420065
Ag	4.809758	-4.811466	0.000000
Ag	7.214638	-7.217199	-2.405733
O	8.551512	-5.879320	-1.067854
O	3.741754	-3.743612	-3.743612
O	5.877763	-5.879320	-3.743612
O	6.146633	-3.473587	-1.337879
O	10.687521	-3.743612	-1.067854
O	6.146633	-1.337878	-3.473587
O	8.282642	-1.337878	-1.337879
O	8.282642	-3.473587	-3.473587
Y	3.607319	-6.014332	-3.608599
Y	8.417077	-3.608599	-1.202866
Y	10.821956	-6.014332	-1.202866
Y	6.012198	-3.608599	-3.608599
Ag	9.619517	0.000000	0.000000
Ag	12.024396	-2.405733	-2.405733
O	13.361271	-1.067854	-1.067854
O	8.551512	1.067854	-3.743612
O	10.687521	-1.067854	-3.743612
O	10.956391	1.337879	-1.337879
O	15.497280	1.067854	-1.067854
O	10.956391	3.473587	-3.473587
O	13.092400	3.473587	-1.337879
O	13.092400	1.337879	-3.473587
Y	8.417077	-1.202866	-3.608599
Y	13.226836	1.202866	-1.202866
Y	15.631715	-1.202866	-1.202866
Y	10.821956	1.202866	-3.608599
Ag	0.000000	-4.811466	-4.811466
Ag	2.404879	-7.217199	-7.217199
O	3.741754	-5.879320	-5.879320
O	-1.068005	-3.743612	-8.555077
O	1.068004	-5.879320	-8.555077
O	1.336875	-3.473587	-6.149345
O	5.877763	-3.743612	-5.879320
O	1.336875	-1.337878	-8.285053
O	3.472884	-1.337878	-6.149345
O	3.472884	-3.473587	-8.285053
Y	-1.202440	-6.014332	-8.420065
Y	3.607319	-3.608599	-6.014332
Y	6.012198	-6.014332	-6.014332
Y	1.202440	-3.608599	-8.420065
Ag	4.809758	0.000000	-4.811466
Ag	7.214638	-2.405733	-7.217199
O	8.551512	-1.067854	-5.879320
O	3.741754	1.067854	-8.555077
O	5.877763	-1.067854	-8.555077
O	6.146633	1.337879	-6.149345
O	10.687521	1.067854	-5.879320
O	6.146633	3.473587	-8.285053
O	8.282642	3.473587	-6.149345
O	8.282642	1.337879	-8.285053
Y	3.607319	-1.202866	-8.420065
Y	8.417077	1.202866	-6.014332
Y	10.821956	-1.202866	-6.014332
Y	6.012198	1.202866	-8.420065
