40

B	1.745900	1.745900	1.745900
O	1.745900	1.745900	0.000000
O	0.000000	1.745900	1.745900
O	1.745900	0.000000	1.745900
Sb	0.000000	0.000000	0.000000
B	1.745900	1.745900	5.237706
O	1.745900	1.745900	3.491806
O	0.000000	1.745900	5.237706
O	1.745900	0.000000	5.237706
Sb	0.000000	0.000000	3.491806
B	1.745900	5.237706	1.745900
O	1.745900	5.237706	0.000000
O	0.000000	5.237706	1.745900
O	1.745900	3.491806	1.745900
Sb	0.000000	3.491806	0.000000
B	1.745900	5.237706	5.237706
O	1.745900	5.237706	3.491806
O	0.000000	5.237706	5.237706
O	1.745900	3.491806	5.237706
Sb	0.000000	3.491806	3.491806
B	5.237706	1.745900	1.745900
O	5.237706	1.745900	0.000000
O	3.491806	1.745900	1.745900
O	5.237706	0.000000	1.745900
Sb	3.491806	0.000000	0.000000
B	5.237706	1.745900	5.237706
O	5.237706	1.745900	3.491806
O	3.491806	1.745900	5.237706
O	5.237706	0.000000	5.237706
Sb	3.491806	0.000000	3.491806
B	5.237706	5.237706	1.745900
O	5.237706	5.237706	0.000000
O	3.491806	5.237706	1.745900
O	5.237706	3.491806	1.745900
Sb	3.491806	3.491806	0.000000
B	5.237706	5.237706	5.237706
O	5.237706	5.237706	3.491806
O	3.491806	5.237706	5.237706
O	5.237706	3.491806	5.237706
Sb	3.491806	3.491806	3.491806
