112

B	0.000000	0.000000	0.000000
B	2.425237	-2.425293	-2.425293
O	0.835006	0.835211	-0.835211
O	-1.590231	1.590073	-3.260504
O	3.260253	-1.590073	-1.590073
O	1.590231	-1.590073	-3.260504
O	0.835006	4.015366	-4.015366
O	4.015478	4.015366	-0.835211
O	4.015478	0.835211	-4.015366
O	6.440715	1.590073	-1.590073
Rb	-1.212619	-1.212647	-3.637940
Rb	6.063102	-1.212647	-1.212647
Rb	1.212619	1.212647	-3.637940
Rb	3.637865	1.212647	-1.212647
B	4.850483	4.850583	0.000000
B	7.275720	2.425290	-2.425293
O	5.685489	5.685793	-0.835211
O	3.260252	6.440655	-3.260504
O	8.110736	3.260510	-1.590073
O	6.440714	3.260510	-3.260504
O	5.685489	8.865948	-4.015366
O	8.865961	8.865948	-0.835211
O	8.865961	5.685793	-4.015366
O	11.291198	6.440655	-1.590073
Rb	3.637865	3.637936	-3.637940
Rb	10.913585	3.637936	-1.212647
Rb	6.063102	6.063229	-3.637940
Rb	8.488348	6.063229	-1.212647
B	-4.850483	0.000000	-4.850583
B	-2.425246	-2.425293	-7.275876
O	-4.015477	0.835211	-5.685793
O	-6.440714	1.590073	-8.111086
O	-1.590230	-1.590073	-6.440655
O	-3.260252	-1.590073	-8.111086
O	-4.015477	4.015366	-8.865948
O	-0.835005	4.015366	-5.685793
O	-0.835005	0.835211	-8.865948
O	1.590232	1.590073	-6.440655
Rb	-6.063102	-1.212647	-8.488522
Rb	1.212619	-1.212647	-6.063229
Rb	-3.637865	1.212647	-8.488522
Rb	-1.212618	1.212647	-6.063229
B	0.000000	4.850583	-4.850583
B	2.425237	2.425290	-7.275876
O	0.835006	5.685793	-5.685793
O	-1.590231	6.440655	-8.111086
O	3.260253	3.260510	-6.440655
O	1.590231	3.260510	-8.111086
O	0.835006	8.865948	-8.865948
O	4.015478	8.865948	-5.685793
O	4.015478	5.685793	-8.865948
O	6.440715	6.440655	-6.440655
Rb	-1.212619	3.637936	-8.488522
Rb	6.063102	3.637936	-6.063229
Rb	1.212619	6.063229	-8.488522
Rb	3.637865	6.063229	-6.063229
B	4.850483	-4.850583	0.000000
B	7.275720	-7.275876	-2.425293
O	5.685489	-4.015372	-0.835211
O	3.260252	-3.260510	-3.260504
O	8.110736	-6.440655	-1.590073
O	6.440714	-6.440655	-3.260504
O	5.685489	-0.835217	-4.015366
O	8.865961	-0.835217	-0.835211
O	8.865961	-4.015372	-4.015366
O	11.291198	-3.260510	-1.590073
Rb	3.637865	-6.063229	-3.637940
Rb	10.913585	-6.063229	-1.212647
Rb	6.063102	-3.637936	-3.637940
Rb	8.488348	-3.637936	-1.212647
B	9.700966	0.000000	0.000000
B	12.126203	-2.425293	-2.425293
O	10.535972	0.835211	-0.835211
O	8.110735	1.590073	-3.260504
O	12.961219	-1.590073	-1.590073
O	11.291197	-1.590073	-3.260504
O	10.535972	4.015366	-4.015366
O	13.716444	4.015366	-0.835211
O	13.716444	0.835211	-4.015366
O	16.141681	1.590073	-1.590073
Rb	8.488348	-1.212647	-3.637940
Rb	15.764068	-1.212647	-1.212647
Rb	10.913585	1.212647	-3.637940
Rb	13.338831	1.212647	-1.212647
B	0.000000	-4.850583	-4.850583
B	2.425237	-7.275876	-7.275876
O	0.835006	-4.015372	-5.685793
O	-1.590231	-3.260510	-8.111086
O	3.260253	-6.440655	-6.440655
O	1.590231	-6.440655	-8.111086
O	0.835006	-0.835217	-8.865948
O	4.015478	-0.835217	-5.685793
O	4.015478	-4.015372	-8.865948
O	6.440715	-3.260510	-6.440655
Rb	-1.212619	-6.063229	-8.488522
Rb	6.063102	-6.063229	-6.063229
Rb	1.212619	-3.637936	-8.488522
Rb	3.637865	-3.637936	-6.063229
B	4.850483	0.000000	-4.850583
B	7.275720	-2.425293	-7.275876
O	5.685489	0.835211	-5.685793
O	3.260252	1.590073	-8.111086
O	8.110736	-1.590073	-6.440655
O	6.440714	-1.590073	-8.111086
O	5.685489	4.015366	-8.865948
O	8.865961	4.015366	-5.685793
O	8.865961	0.835211	-8.865948
O	11.291198	1.590073	-6.440655
Rb	3.637865	-1.212647	-8.488522
Rb	10.913585	-1.212647	-6.063229
Rb	6.063102	1.212647	-8.488522
Rb	8.488348	1.212647	-6.063229
