40

As	0.000000	0.000000	0.000000
O	0.000000	2.055568	2.055568
O	2.055568	0.000000	2.055568
O	2.055568	2.055568	0.000000
Sn	2.055568	2.055568	2.055568
As	0.000000	0.000000	4.111135
O	0.000000	2.055568	6.166703
O	2.055568	0.000000	6.166703
O	2.055568	2.055568	4.111135
Sn	2.055568	2.055568	6.166703
As	0.000000	4.111135	0.000000
O	0.000000	6.166703	2.055568
O	2.055568	4.111135	2.055568
O	2.055568	6.166703	0.000000
Sn	2.055568	6.166703	2.055568
As	0.000000	4.111135	4.111135
O	0.000000	6.166703	6.166703
O	2.055568	4.111135	6.166703
O	2.055568	6.166703	4.111135
Sn	2.055568	6.166703	6.166703
As	4.111135	0.000000	0.000000
O	4.111135	2.055568	2.055568
O	6.166703	0.000000	2.055568
O	6.166703	2.055568	0.000000
Sn	6.166703	2.055568	2.055568
As	4.111135	0.000000	4.111135
O	4.111135	2.055568	6.166703
O	6.166703	0.000000	6.166703
O	6.166703	2.055568	4.111135
Sn	6.166703	2.055568	6.166703
As	4.111135	4.111135	0.000000
O	4.111135	6.166703	2.055568
O	6.166703	4.111135	2.055568
O	6.166703	6.166703	0.000000
Sn	6.166703	6.166703	2.055568
As	4.111135	4.111135	4.111135
O	4.111135	6.166703	6.166703
O	6.166703	4.111135	6.166703
O	6.166703	6.166703	4.111135
Sn	6.166703	6.166703	6.166703
