40

Au	0.000000	0.000000	0.000000
Mn	1.927979	1.927979	1.927979
O	1.927979	1.927979	0.000000
O	1.927979	0.000000	1.927979
O	0.000000	1.927979	1.927979
Au	0.000000	0.000000	3.855958
Mn	1.927979	1.927979	5.783937
O	1.927979	1.927979	3.855958
O	1.927979	0.000000	5.783937
O	0.000000	1.927979	5.783937
Au	0.000000	3.855958	0.000000
Mn	1.927979	5.783937	1.927979
O	1.927979	5.783937	0.000000
O	1.927979	3.855958	1.927979
O	0.000000	5.783937	1.927979
Au	0.000000	3.855958	3.855958
Mn	1.927979	5.783937	5.783937
O	1.927979	5.783937	3.855958
O	1.927979	3.855958	5.783937
O	0.000000	5.783937	5.783937
Au	3.855958	0.000000	0.000000
Mn	5.783937	1.927979	1.927979
O	5.783937	1.927979	0.000000
O	5.783937	0.000000	1.927979
O	3.855958	1.927979	1.927979
Au	3.855958	0.000000	3.855958
Mn	5.783937	1.927979	5.783937
O	5.783937	1.927979	3.855958
O	5.783937	0.000000	5.783937
O	3.855958	1.927979	5.783937
Au	3.855958	3.855958	0.000000
Mn	5.783937	5.783937	1.927979
O	5.783937	5.783937	0.000000
O	5.783937	3.855958	1.927979
O	3.855958	5.783937	1.927979
Au	3.855958	3.855958	3.855958
Mn	5.783937	5.783937	5.783937
O	5.783937	5.783937	3.855958
O	5.783937	3.855958	5.783937
O	3.855958	5.783937	5.783937
