40

B	1.721821	1.721821	1.721821
Mo	0.000000	0.000000	0.000000
O	0.000000	1.721821	1.721821
O	1.721821	0.000000	1.721821
O	1.721821	1.721821	0.000000
B	1.721821	1.721821	5.165463
Mo	0.000000	0.000000	3.443642
O	0.000000	1.721821	5.165463
O	1.721821	0.000000	5.165463
O	1.721821	1.721821	3.443642
B	1.721821	5.165463	1.721821
Mo	0.000000	3.443642	0.000000
O	0.000000	5.165463	1.721821
O	1.721821	3.443642	1.721821
O	1.721821	5.165463	0.000000
B	1.721821	5.165463	5.165463
Mo	0.000000	3.443642	3.443642
O	0.000000	5.165463	5.165463
O	1.721821	3.443642	5.165463
O	1.721821	5.165463	3.443642
B	5.165463	1.721821	1.721821
Mo	3.443642	0.000000	0.000000
O	3.443642	1.721821	1.721821
O	5.165463	0.000000	1.721821
O	5.165463	1.721821	0.000000
B	5.165463	1.721821	5.165463
Mo	3.443642	0.000000	3.443642
O	3.443642	1.721821	5.165463
O	5.165463	0.000000	5.165463
O	5.165463	1.721821	3.443642
B	5.165463	5.165463	1.721821
Mo	3.443642	3.443642	0.000000
O	3.443642	5.165463	1.721821
O	5.165463	3.443642	1.721821
O	5.165463	5.165463	0.000000
B	5.165463	5.165463	5.165463
Mo	3.443642	3.443642	3.443642
O	3.443642	5.165463	5.165463
O	5.165463	3.443642	5.165463
O	5.165463	5.165463	3.443642
