40

Ag	2.041250	2.041250	2.041250
Br	0.000000	0.000000	0.000000
O	0.000000	2.041250	2.041250
O	2.041250	0.000000	2.041250
O	2.041250	2.041250	0.000000
Ag	2.041250	2.041250	6.123749
Br	0.000000	0.000000	4.082499
O	0.000000	2.041250	6.123749
O	2.041250	0.000000	6.123749
O	2.041250	2.041250	4.082499
Ag	2.041250	6.123749	2.041250
Br	0.000000	4.082499	0.000000
O	0.000000	6.123749	2.041250
O	2.041250	4.082499	2.041250
O	2.041250	6.123749	0.000000
Ag	2.041250	6.123749	6.123749
Br	0.000000	4.082499	4.082499
O	0.000000	6.123749	6.123749
O	2.041250	4.082499	6.123749
O	2.041250	6.123749	4.082499
Ag	6.123749	2.041250	2.041250
Br	4.082499	0.000000	0.000000
O	4.082499	2.041250	2.041250
O	6.123749	0.000000	2.041250
O	6.123749	2.041250	0.000000
Ag	6.123749	2.041250	6.123749
Br	4.082499	0.000000	4.082499
O	4.082499	2.041250	6.123749
O	6.123749	0.000000	6.123749
O	6.123749	2.041250	4.082499
Ag	6.123749	6.123749	2.041250
Br	4.082499	4.082499	0.000000
O	4.082499	6.123749	2.041250
O	6.123749	4.082499	2.041250
O	6.123749	6.123749	0.000000
Ag	6.123749	6.123749	6.123749
Br	4.082499	4.082499	4.082499
O	4.082499	6.123749	6.123749
O	6.123749	4.082499	6.123749
O	6.123749	6.123749	4.082499
