40

O	0.000000	1.965479	1.965479
O	1.965479	0.000000	1.965479
O	1.965479	1.965479	0.000000
Os	1.965479	1.965479	1.965479
V	0.000000	0.000000	0.000000
O	0.000000	1.965479	5.896437
O	1.965479	0.000000	5.896437
O	1.965479	1.965479	3.930958
Os	1.965479	1.965479	5.896437
V	0.000000	0.000000	3.930958
O	0.000000	5.896437	1.965479
O	1.965479	3.930958	1.965479
O	1.965479	5.896437	0.000000
Os	1.965479	5.896437	1.965479
V	0.000000	3.930958	0.000000
O	0.000000	5.896437	5.896437
O	1.965479	3.930958	5.896437
O	1.965479	5.896437	3.930958
Os	1.965479	5.896437	5.896437
V	0.000000	3.930958	3.930958
O	3.930958	1.965479	1.965479
O	5.896437	0.000000	1.965479
O	5.896437	1.965479	0.000000
Os	5.896437	1.965479	1.965479
V	3.930958	0.000000	0.000000
O	3.930958	1.965479	5.896437
O	5.896437	0.000000	5.896437
O	5.896437	1.965479	3.930958
Os	5.896437	1.965479	5.896437
V	3.930958	0.000000	3.930958
O	3.930958	5.896437	1.965479
O	5.896437	3.930958	1.965479
O	5.896437	5.896437	0.000000
Os	5.896437	5.896437	1.965479
V	3.930958	3.930958	0.000000
O	3.930958	5.896437	5.896437
O	5.896437	3.930958	5.896437
O	5.896437	5.896437	3.930958
Os	5.896437	5.896437	5.896437
V	3.930958	3.930958	3.930958
