40

O	1.964684	1.964684	0.000000
O	1.964684	0.000000	1.964684
O	0.000000	1.964684	1.964684
Os	1.964684	1.964684	1.964684
V	0.000000	0.000000	0.000000
O	1.964684	1.964684	3.929368
O	1.964684	0.000000	5.894052
O	0.000000	1.964684	5.894052
Os	1.964684	1.964684	5.894052
V	0.000000	0.000000	3.929368
O	1.964684	5.894052	0.000000
O	1.964684	3.929368	1.964684
O	0.000000	5.894052	1.964684
Os	1.964684	5.894052	1.964684
V	0.000000	3.929368	0.000000
O	1.964684	5.894052	3.929368
O	1.964684	3.929368	5.894052
O	0.000000	5.894052	5.894052
Os	1.964684	5.894052	5.894052
V	0.000000	3.929368	3.929368
O	5.894052	1.964684	0.000000
O	5.894052	0.000000	1.964684
O	3.929368	1.964684	1.964684
Os	5.894052	1.964684	1.964684
V	3.929368	0.000000	0.000000
O	5.894052	1.964684	3.929368
O	5.894052	0.000000	5.894052
O	3.929368	1.964684	5.894052
Os	5.894052	1.964684	5.894052
V	3.929368	0.000000	3.929368
O	5.894052	5.894052	0.000000
O	5.894052	3.929368	1.964684
O	3.929368	5.894052	1.964684
Os	5.894052	5.894052	1.964684
V	3.929368	3.929368	0.000000
O	5.894052	5.894052	3.929368
O	5.894052	3.929368	5.894052
O	3.929368	5.894052	5.894052
Os	5.894052	5.894052	5.894052
V	3.929368	3.929368	3.929368
