40

Br	2.031993	2.031993	2.031993
Ge	0.000000	0.000000	0.000000
O	0.000000	2.031993	2.031993
O	2.031993	0.000000	2.031993
O	2.031993	2.031993	0.000000
Br	2.031993	2.031993	6.095979
Ge	0.000000	0.000000	4.063986
O	0.000000	2.031993	6.095979
O	2.031993	0.000000	6.095979
O	2.031993	2.031993	4.063986
Br	2.031993	6.095979	2.031993
Ge	0.000000	4.063986	0.000000
O	0.000000	6.095979	2.031993
O	2.031993	4.063986	2.031993
O	2.031993	6.095979	0.000000
Br	2.031993	6.095979	6.095979
Ge	0.000000	4.063986	4.063986
O	0.000000	6.095979	6.095979
O	2.031993	4.063986	6.095979
O	2.031993	6.095979	4.063986
Br	6.095979	2.031993	2.031993
Ge	4.063986	0.000000	0.000000
O	4.063986	2.031993	2.031993
O	6.095979	0.000000	2.031993
O	6.095979	2.031993	0.000000
Br	6.095979	2.031993	6.095979
Ge	4.063986	0.000000	4.063986
O	4.063986	2.031993	6.095979
O	6.095979	0.000000	6.095979
O	6.095979	2.031993	4.063986
Br	6.095979	6.095979	2.031993
Ge	4.063986	4.063986	0.000000
O	4.063986	6.095979	2.031993
O	6.095979	4.063986	2.031993
O	6.095979	6.095979	0.000000
Br	6.095979	6.095979	6.095979
Ge	4.063986	4.063986	4.063986
O	4.063986	6.095979	6.095979
O	6.095979	4.063986	6.095979
O	6.095979	6.095979	4.063986
