40

Cu	1.849040	1.849040	1.849040
Lu	0.000000	0.000000	0.000000
O	1.849040	1.849040	0.000000
O	0.000000	1.849040	1.849040
O	1.849040	0.000000	1.849040
Cu	1.849040	1.849040	5.547117
Lu	0.000000	0.000000	3.698077
O	1.849040	1.849040	3.698077
O	0.000000	1.849040	5.547117
O	1.849040	0.000000	5.547117
Cu	1.849040	5.547117	1.849040
Lu	0.000000	3.698077	0.000000
O	1.849040	5.547117	0.000000
O	0.000000	5.547117	1.849040
O	1.849040	3.698077	1.849040
Cu	1.849040	5.547117	5.547117
Lu	0.000000	3.698077	3.698077
O	1.849040	5.547117	3.698077
O	0.000000	5.547117	5.547117
O	1.849040	3.698077	5.547117
Cu	5.547117	1.849040	1.849040
Lu	3.698077	0.000000	0.000000
O	5.547117	1.849040	0.000000
O	3.698077	1.849040	1.849040
O	5.547117	0.000000	1.849040
Cu	5.547117	1.849040	5.547117
Lu	3.698077	0.000000	3.698077
O	5.547117	1.849040	3.698077
O	3.698077	1.849040	5.547117
O	5.547117	0.000000	5.547117
Cu	5.547117	5.547117	1.849040
Lu	3.698077	3.698077	0.000000
O	5.547117	5.547117	0.000000
O	3.698077	5.547117	1.849040
O	5.547117	3.698077	1.849040
Cu	5.547117	5.547117	5.547117
Lu	3.698077	3.698077	3.698077
O	5.547117	5.547117	3.698077
O	3.698077	5.547117	5.547117
O	5.547117	3.698077	5.547117
