40

Ba	2.317534	2.317534	2.317534
O	0.000000	2.317534	2.317534
O	2.317534	0.000000	2.317534
O	2.317534	2.317534	0.000000
Si	0.000000	0.000000	0.000000
Ba	2.317534	2.317534	6.952601
O	0.000000	2.317534	6.952601
O	2.317534	0.000000	6.952601
O	2.317534	2.317534	4.635068
Si	0.000000	0.000000	4.635068
Ba	2.317534	6.952601	2.317534
O	0.000000	6.952601	2.317534
O	2.317534	4.635068	2.317534
O	2.317534	6.952601	0.000000
Si	0.000000	4.635068	0.000000
Ba	2.317534	6.952601	6.952601
O	0.000000	6.952601	6.952601
O	2.317534	4.635068	6.952601
O	2.317534	6.952601	4.635068
Si	0.000000	4.635068	4.635068
Ba	6.952601	2.317534	2.317534
O	4.635068	2.317534	2.317534
O	6.952601	0.000000	2.317534
O	6.952601	2.317534	0.000000
Si	4.635068	0.000000	0.000000
Ba	6.952601	2.317534	6.952601
O	4.635068	2.317534	6.952601
O	6.952601	0.000000	6.952601
O	6.952601	2.317534	4.635068
Si	4.635068	0.000000	4.635068
Ba	6.952601	6.952601	2.317534
O	4.635068	6.952601	2.317534
O	6.952601	4.635068	2.317534
O	6.952601	6.952601	0.000000
Si	4.635068	4.635068	0.000000
Ba	6.952601	6.952601	6.952601
O	4.635068	6.952601	6.952601
O	6.952601	4.635068	6.952601
O	6.952601	6.952601	4.635068
Si	4.635068	4.635068	4.635068
