112

Al	0.000000	0.000000	0.000000
Al	2.443094	-2.443393	-2.443393
K	-1.221537	-1.221691	-3.665084
K	1.221537	1.221691	-3.665084
K	3.664631	1.221691	-1.221691
K	6.107725	-1.221691	-1.221691
O	1.012597	1.013030	-1.013030
O	-1.430497	1.430362	-3.456423
O	3.455691	-1.430362	-1.430362
O	1.430497	-1.430362	-3.456423
O	1.012597	3.873755	-3.873755
O	3.873581	3.873755	-1.013030
O	3.873581	1.013030	-3.873755
O	6.316675	1.430362	-1.430362
Al	4.886180	4.886782	0.000000
Al	7.329274	2.443389	-2.443393
K	3.664643	3.665090	-3.665084
K	6.107717	6.108473	-3.665084
K	8.550811	6.108473	-1.221691
K	10.993905	3.665090	-1.221691
O	5.898777	5.899812	-1.013030
O	3.455683	6.317144	-3.456423
O	8.341871	3.456419	-1.430362
O	6.316677	3.456419	-3.456423
O	5.898777	8.760537	-3.873755
O	8.759761	8.760537	-1.013030
O	8.759761	5.899812	-3.873755
O	11.202854	6.317144	-1.430362
Al	-4.886180	0.000000	-4.886782
Al	-2.443086	-2.443393	-7.330175
K	-6.107717	-1.221691	-8.551866
K	-3.664643	1.221691	-8.551866
K	-1.221549	1.221691	-6.108473
K	1.221545	-1.221691	-6.108473
O	-3.873583	1.013030	-5.899812
O	-6.316677	1.430362	-8.343205
O	-1.430489	-1.430362	-6.317144
O	-3.455683	-1.430362	-8.343205
O	-3.873583	3.873755	-8.760537
O	-1.012599	3.873755	-5.899812
O	-1.012599	1.013030	-8.760537
O	1.430495	1.430362	-6.317144
Al	0.000000	4.886782	-4.886782
Al	2.443094	2.443389	-7.330175
K	-1.221537	3.665090	-8.551866
K	1.221537	6.108473	-8.551866
K	3.664631	6.108473	-6.108473
K	6.107725	3.665090	-6.108473
O	1.012597	5.899812	-5.899812
O	-1.430497	6.317144	-8.343205
O	3.455691	3.456419	-6.317144
O	1.430497	3.456419	-8.343205
O	1.012597	8.760537	-8.760537
O	3.873581	8.760537	-5.899812
O	3.873581	5.899812	-8.760537
O	6.316675	6.317144	-6.317144
Al	4.886180	-4.886782	0.000000
Al	7.329274	-7.330175	-2.443393
K	3.664643	-6.108473	-3.665084
K	6.107717	-3.665090	-3.665084
K	8.550811	-3.665090	-1.221691
K	10.993905	-6.108473	-1.221691
O	5.898777	-3.873751	-1.013030
O	3.455683	-3.456419	-3.456423
O	8.341871	-6.317144	-1.430362
O	6.316677	-6.317144	-3.456423
O	5.898777	-1.013027	-3.873755
O	8.759761	-1.013027	-1.013030
O	8.759761	-3.873751	-3.873755
O	11.202854	-3.456419	-1.430362
Al	9.772360	0.000000	0.000000
Al	12.215454	-2.443393	-2.443393
K	8.550823	-1.221691	-3.665084
K	10.993897	1.221691	-3.665084
K	13.436991	1.221691	-1.221691
K	15.880085	-1.221691	-1.221691
O	10.784957	1.013030	-1.013030
O	8.341863	1.430362	-3.456423
O	13.228051	-1.430362	-1.430362
O	11.202856	-1.430362	-3.456423
O	10.784957	3.873755	-3.873755
O	13.645940	3.873755	-1.013030
O	13.645940	1.013030	-3.873755
O	16.089034	1.430362	-1.430362
Al	0.000000	-4.886782	-4.886782
Al	2.443094	-7.330175	-7.330175
K	-1.221537	-6.108473	-8.551866
K	1.221537	-3.665090	-8.551866
K	3.664631	-3.665090	-6.108473
K	6.107725	-6.108473	-6.108473
O	1.012597	-3.873751	-5.899812
O	-1.430497	-3.456419	-8.343205
O	3.455691	-6.317144	-6.317144
O	1.430497	-6.317144	-8.343205
O	1.012597	-1.013027	-8.760537
O	3.873581	-1.013027	-5.899812
O	3.873581	-3.873751	-8.760537
O	6.316675	-3.456419	-6.317144
Al	4.886180	0.000000	-4.886782
Al	7.329274	-2.443393	-7.330175
K	3.664643	-1.221691	-8.551866
K	6.107717	1.221691	-8.551866
K	8.550811	1.221691	-6.108473
K	10.993905	-1.221691	-6.108473
O	5.898777	1.013030	-5.899812
O	3.455683	1.430362	-8.343205
O	8.341871	-1.430362	-6.317144
O	6.316677	-1.430362	-8.343205
O	5.898777	3.873755	-8.760537
O	8.759761	3.873755	-5.899812
O	8.759761	1.013030	-8.760537
O	11.202854	1.430362	-6.317144
