40

Be	1.759027	1.759027	1.759027
Ge	0.000000	0.000000	0.000000
O	0.000000	1.759027	1.759027
O	1.759027	0.000000	1.759027
O	1.759027	1.759027	0.000000
Be	1.759027	1.759027	5.277082
Ge	0.000000	0.000000	3.518055
O	0.000000	1.759027	5.277082
O	1.759027	0.000000	5.277082
O	1.759027	1.759027	3.518055
Be	1.759027	5.277082	1.759027
Ge	0.000000	3.518055	0.000000
O	0.000000	5.277082	1.759027
O	1.759027	3.518055	1.759027
O	1.759027	5.277082	0.000000
Be	1.759027	5.277082	5.277082
Ge	0.000000	3.518055	3.518055
O	0.000000	5.277082	5.277082
O	1.759027	3.518055	5.277082
O	1.759027	5.277082	3.518055
Be	5.277082	1.759027	1.759027
Ge	3.518055	0.000000	0.000000
O	3.518055	1.759027	1.759027
O	5.277082	0.000000	1.759027
O	5.277082	1.759027	0.000000
Be	5.277082	1.759027	5.277082
Ge	3.518055	0.000000	3.518055
O	3.518055	1.759027	5.277082
O	5.277082	0.000000	5.277082
O	5.277082	1.759027	3.518055
Be	5.277082	5.277082	1.759027
Ge	3.518055	3.518055	0.000000
O	3.518055	5.277082	1.759027
O	5.277082	3.518055	1.759027
O	5.277082	5.277082	0.000000
Be	5.277082	5.277082	5.277082
Ge	3.518055	3.518055	3.518055
O	3.518055	5.277082	5.277082
O	5.277082	3.518055	5.277082
O	5.277082	5.277082	3.518055
