40

Cr	0.000000	0.000000	0.000000
Fe	1.837574	1.837574	1.837574
O	0.000000	1.837574	1.837574
O	1.837574	0.000000	1.837574
O	1.837574	1.837574	0.000000
Cr	0.000000	0.000000	3.675149
Fe	1.837574	1.837574	5.512723
O	0.000000	1.837574	5.512723
O	1.837574	0.000000	5.512723
O	1.837574	1.837574	3.675149
Cr	0.000000	3.675149	0.000000
Fe	1.837574	5.512723	1.837574
O	0.000000	5.512723	1.837574
O	1.837574	3.675149	1.837574
O	1.837574	5.512723	0.000000
Cr	0.000000	3.675149	3.675149
Fe	1.837574	5.512723	5.512723
O	0.000000	5.512723	5.512723
O	1.837574	3.675149	5.512723
O	1.837574	5.512723	3.675149
Cr	3.675149	0.000000	0.000000
Fe	5.512723	1.837574	1.837574
O	3.675149	1.837574	1.837574
O	5.512723	0.000000	1.837574
O	5.512723	1.837574	0.000000
Cr	3.675149	0.000000	3.675149
Fe	5.512723	1.837574	5.512723
O	3.675149	1.837574	5.512723
O	5.512723	0.000000	5.512723
O	5.512723	1.837574	3.675149
Cr	3.675149	3.675149	0.000000
Fe	5.512723	5.512723	1.837574
O	3.675149	5.512723	1.837574
O	5.512723	3.675149	1.837574
O	5.512723	5.512723	0.000000
Cr	3.675149	3.675149	3.675149
Fe	5.512723	5.512723	5.512723
O	3.675149	5.512723	5.512723
O	5.512723	3.675149	5.512723
O	5.512723	5.512723	3.675149
