40

Hg	2.070460	2.070460	2.070460
O	2.070460	2.070460	0.000000
O	0.000000	2.070460	2.070460
O	2.070460	0.000000	2.070460
Sc_sv	0.000000	0.000000	0.000000
Hg	2.070460	2.070460	6.211386
O	2.070460	2.070460	4.140926
O	0.000000	2.070460	6.211386
O	2.070460	0.000000	6.211386
Sc_sv	0.000000	0.000000	4.140926
Hg	2.070460	6.211386	2.070460
O	2.070460	6.211386	0.000000
O	0.000000	6.211386	2.070460
O	2.070460	4.140926	2.070460
Sc_sv	0.000000	4.140926	0.000000
Hg	2.070460	6.211386	6.211386
O	2.070460	6.211386	4.140926
O	0.000000	6.211386	6.211386
O	2.070460	4.140926	6.211386
Sc_sv	0.000000	4.140926	4.140926
Hg	6.211386	2.070460	2.070460
O	6.211386	2.070460	0.000000
O	4.140926	2.070460	2.070460
O	6.211386	0.000000	2.070460
Sc_sv	4.140926	0.000000	0.000000
Hg	6.211386	2.070460	6.211386
O	6.211386	2.070460	4.140926
O	4.140926	2.070460	6.211386
O	6.211386	0.000000	6.211386
Sc_sv	4.140926	0.000000	4.140926
Hg	6.211386	6.211386	2.070460
O	6.211386	6.211386	0.000000
O	4.140926	6.211386	2.070460
O	6.211386	4.140926	2.070460
Sc_sv	4.140926	4.140926	0.000000
Hg	6.211386	6.211386	6.211386
O	6.211386	6.211386	4.140926
O	4.140926	6.211386	6.211386
O	6.211386	4.140926	6.211386
Sc_sv	4.140926	4.140926	4.140926
