112

Ca	0.000000	0.000000	0.000000
Ca	2.429479	-2.429426	-2.429426
O	1.129146	-1.129080	-3.729772
O	3.729802	-1.129080	-1.129080
O	-1.129146	1.129080	-3.729772
O	1.300333	1.300346	-1.300346
O	5.988104	1.129080	-1.129080
O	3.558625	1.300346	-3.558496
O	3.558625	3.558496	-1.300346
O	1.300333	3.558496	-3.558496
Sb	-1.214739	-1.214708	-3.644134
Sb	6.073687	-1.214708	-1.214708
Sb	3.644218	1.214708	-1.214708
Sb	1.214739	1.214708	-3.644134
Ca	4.858954	4.858847	0.000000
Ca	7.288432	2.429421	-2.429426
O	5.988100	3.729766	-3.729772
O	8.588755	3.729766	-1.129080
O	3.729808	5.987927	-3.729772
O	6.159287	6.159192	-1.300346
O	10.847057	5.987927	-1.129080
O	8.417578	6.159192	-3.558496
O	8.417578	8.417343	-1.300346
O	6.159286	8.417343	-3.558496
Sb	3.644214	3.644138	-3.644134
Sb	10.932641	3.644138	-1.214708
Sb	8.503172	6.073555	-1.214708
Sb	6.073693	6.073555	-3.644134
Ca	-4.858954	0.000000	-4.858847
Ca	-2.429475	-2.429426	-7.288272
O	-3.729808	-1.129080	-8.588618
O	-1.129152	-1.129080	-5.987927
O	-5.988100	1.129080	-8.588618
O	-3.558621	1.300346	-6.159192
O	1.129150	1.129080	-5.987927
O	-1.300329	1.300346	-8.417343
O	-1.300329	3.558496	-6.159192
O	-3.558621	3.558496	-8.417343
Sb	-6.073693	-1.214708	-8.502981
Sb	1.214734	-1.214708	-6.073555
Sb	-1.214735	1.214708	-6.073555
Sb	-3.644214	1.214708	-8.502981
Ca	0.000000	4.858847	-4.858847
Ca	2.429479	2.429421	-7.288272
O	1.129146	3.729766	-8.588618
O	3.729802	3.729766	-5.987927
O	-1.129146	5.987927	-8.588618
O	1.300333	6.159192	-6.159192
O	5.988104	5.987927	-5.987927
O	3.558625	6.159192	-8.417343
O	3.558625	8.417343	-6.159192
O	1.300333	8.417343	-8.417343
Sb	-1.214739	3.644138	-8.502981
Sb	6.073687	3.644138	-6.073555
Sb	3.644218	6.073555	-6.073555
Sb	1.214739	6.073555	-8.502981
Ca	4.858954	-4.858847	0.000000
Ca	7.288432	-7.288272	-2.429426
O	5.988100	-5.987927	-3.729772
O	8.588755	-5.987927	-1.129080
O	3.729808	-3.729766	-3.729772
O	6.159287	-3.558501	-1.300346
O	10.847057	-3.729766	-1.129080
O	8.417578	-3.558501	-3.558496
O	8.417578	-1.300350	-1.300346
O	6.159286	-1.300350	-3.558496
Sb	3.644214	-6.073555	-3.644134
Sb	10.932641	-6.073555	-1.214708
Sb	8.503172	-3.644138	-1.214708
Sb	6.073693	-3.644138	-3.644134
Ca	9.717907	0.000000	0.000000
Ca	12.147386	-2.429426	-2.429426
O	10.847053	-1.129080	-3.729772
O	13.447709	-1.129080	-1.129080
O	8.588761	1.129080	-3.729772
O	11.018240	1.300346	-1.300346
O	15.706011	1.129080	-1.129080
O	13.276532	1.300346	-3.558496
O	13.276532	3.558496	-1.300346
O	11.018240	3.558496	-3.558496
Sb	8.503168	-1.214708	-3.644134
Sb	15.791595	-1.214708	-1.214708
Sb	13.362126	1.214708	-1.214708
Sb	10.932647	1.214708	-3.644134
Ca	0.000000	-4.858847	-4.858847
Ca	2.429479	-7.288272	-7.288272
O	1.129146	-5.987927	-8.588618
O	3.729802	-5.987927	-5.987927
O	-1.129146	-3.729766	-8.588618
O	1.300333	-3.558501	-6.159192
O	5.988104	-3.729766	-5.987927
O	3.558625	-3.558501	-8.417343
O	3.558625	-1.300350	-6.159192
O	1.300333	-1.300350	-8.417343
Sb	-1.214739	-6.073555	-8.502981
Sb	6.073687	-6.073555	-6.073555
Sb	3.644218	-3.644138	-6.073555
Sb	1.214739	-3.644138	-8.502981
Ca	4.858954	0.000000	-4.858847
Ca	7.288432	-2.429426	-7.288272
O	5.988100	-1.129080	-8.588618
O	8.588755	-1.129080	-5.987927
O	3.729808	1.129080	-8.588618
O	6.159287	1.300346	-6.159192
O	10.847057	1.129080	-5.987927
O	8.417578	1.300346	-8.417343
O	8.417578	3.558496	-6.159192
O	6.159286	3.558496	-8.417343
Sb	3.644214	-1.214708	-8.502981
Sb	10.932641	-1.214708	-6.073555
Sb	8.503172	1.214708	-6.073555
Sb	6.073693	1.214708	-8.502981
