40

O	0.000000	1.985136	1.985136
O	1.985136	0.000000	1.985136
O	1.985136	1.985136	0.000000
Os	0.000000	0.000000	0.000000
W	1.985136	1.985136	1.985136
O	0.000000	1.985136	5.955408
O	1.985136	0.000000	5.955408
O	1.985136	1.985136	3.970272
Os	0.000000	0.000000	3.970272
W	1.985136	1.985136	5.955408
O	0.000000	5.955408	1.985136
O	1.985136	3.970272	1.985136
O	1.985136	5.955408	0.000000
Os	0.000000	3.970272	0.000000
W	1.985136	5.955408	1.985136
O	0.000000	5.955408	5.955408
O	1.985136	3.970272	5.955408
O	1.985136	5.955408	3.970272
Os	0.000000	3.970272	3.970272
W	1.985136	5.955408	5.955408
O	3.970272	1.985136	1.985136
O	5.955408	0.000000	1.985136
O	5.955408	1.985136	0.000000
Os	3.970272	0.000000	0.000000
W	5.955408	1.985136	1.985136
O	3.970272	1.985136	5.955408
O	5.955408	0.000000	5.955408
O	5.955408	1.985136	3.970272
Os	3.970272	0.000000	3.970272
W	5.955408	1.985136	5.955408
O	3.970272	5.955408	1.985136
O	5.955408	3.970272	1.985136
O	5.955408	5.955408	0.000000
Os	3.970272	3.970272	0.000000
W	5.955408	5.955408	1.985136
O	3.970272	5.955408	5.955408
O	5.955408	3.970272	5.955408
O	5.955408	5.955408	3.970272
Os	3.970272	3.970272	3.970272
W	5.955408	5.955408	5.955408
