112

Na	0.000000	0.000000	0.000000
Na	2.161242	-2.161531	-2.161531
O	3.394155	-0.927925	-0.927925
O	-0.928328	0.927925	-3.395137
O	0.928328	-0.927925	-3.395137
O	1.232914	1.233606	-1.233606
O	5.250812	0.927925	-0.927925
O	1.232914	3.089456	-3.089456
O	3.089570	3.089456	-1.233606
O	3.089570	1.233606	-3.089456
V	-1.080621	-1.080765	-3.242296
V	3.241863	1.080765	-1.080765
V	5.403104	-1.080765	-1.080765
V	1.080621	1.080765	-3.242296
Na	4.322484	4.323062	0.000000
Na	6.483725	2.161531	-2.161531
O	7.716639	3.395137	-0.927925
O	3.394155	5.250987	-3.395137
O	5.250812	3.395137	-3.395137
O	5.555397	5.556668	-1.233606
O	9.573295	5.250987	-0.927925
O	5.555397	7.412518	-3.089456
O	7.412054	7.412518	-1.233606
O	7.412054	5.556668	-3.089456
V	3.241863	3.242296	-3.242296
V	7.564346	5.403827	-1.080765
V	9.725588	3.242296	-1.080765
V	5.403104	5.403827	-3.242296
Na	-4.322484	0.000000	-4.323062
Na	-2.161242	-2.161531	-6.484593
O	-0.928328	-0.927925	-5.250987
O	-5.250812	0.927925	-7.718199
O	-3.394155	-0.927925	-7.718199
O	-3.089570	1.233606	-5.556668
O	0.928328	0.927925	-5.250987
O	-3.089570	3.089456	-7.412518
O	-1.232914	3.089456	-5.556668
O	-1.232914	1.233606	-7.412518
V	-5.403104	-1.080765	-7.565358
V	-1.080621	1.080765	-5.403827
V	1.080621	-1.080765	-5.403827
V	-3.241863	1.080765	-7.565358
Na	0.000000	4.323062	-4.323062
Na	2.161242	2.161531	-6.484593
O	3.394155	3.395137	-5.250987
O	-0.928328	5.250987	-7.718199
O	0.928328	3.395137	-7.718199
O	1.232914	5.556668	-5.556668
O	5.250812	5.250987	-5.250987
O	1.232914	7.412518	-7.412518
O	3.089570	7.412518	-5.556668
O	3.089570	5.556668	-7.412518
V	-1.080621	3.242296	-7.565358
V	3.241863	5.403827	-5.403827
V	5.403104	3.242296	-5.403827
V	1.080621	5.403827	-7.565358
Na	4.322484	-4.323062	0.000000
Na	6.483725	-6.484593	-2.161531
O	7.716639	-5.250987	-0.927925
O	3.394155	-3.395137	-3.395137
O	5.250812	-5.250987	-3.395137
O	5.555397	-3.089456	-1.233606
O	9.573295	-3.395137	-0.927925
O	5.555397	-1.233606	-3.089456
O	7.412054	-1.233606	-1.233606
O	7.412054	-3.089456	-3.089456
V	3.241863	-5.403827	-3.242296
V	7.564346	-3.242296	-1.080765
V	9.725588	-5.403827	-1.080765
V	5.403104	-3.242296	-3.242296
Na	8.644967	0.000000	0.000000
Na	10.806209	-2.161531	-2.161531
O	12.039123	-0.927925	-0.927925
O	7.716639	0.927925	-3.395137
O	9.573295	-0.927925	-3.395137
O	9.877881	1.233606	-1.233606
O	13.895779	0.927925	-0.927925
O	9.877881	3.089456	-3.089456
O	11.734537	3.089456	-1.233606
O	11.734537	1.233606	-3.089456
V	7.564346	-1.080765	-3.242296
V	11.886830	1.080765	-1.080765
V	14.048072	-1.080765	-1.080765
V	9.725588	1.080765	-3.242296
Na	0.000000	-4.323062	-4.323062
Na	2.161242	-6.484593	-6.484593
O	3.394155	-5.250987	-5.250987
O	-0.928328	-3.395137	-7.718199
O	0.928328	-5.250987	-7.718199
O	1.232914	-3.089456	-5.556668
O	5.250812	-3.395137	-5.250987
O	1.232914	-1.233606	-7.412518
O	3.089570	-1.233606	-5.556668
O	3.089570	-3.089456	-7.412518
V	-1.080621	-5.403827	-7.565358
V	3.241863	-3.242296	-5.403827
V	5.403104	-5.403827	-5.403827
V	1.080621	-3.242296	-7.565358
Na	4.322484	0.000000	-4.323062
Na	6.483725	-2.161531	-6.484593
O	7.716639	-0.927925	-5.250987
O	3.394155	0.927925	-7.718199
O	5.250812	-0.927925	-7.718199
O	5.555397	1.233606	-5.556668
O	9.573295	0.927925	-5.250987
O	5.555397	3.089456	-7.412518
O	7.412054	3.089456	-5.556668
O	7.412054	1.233606	-7.412518
V	3.241863	-1.080765	-7.565358
V	7.564346	1.080765	-5.403827
V	9.725588	-1.080765	-5.403827
V	5.403104	1.080765	-7.565358
