40

Ag	0.000000	0.000000	0.000000
O	0.000000	2.155467	2.155467
O	2.155467	0.000000	2.155467
O	2.155467	2.155467	0.000000
Tl	2.155467	2.155467	2.155467
Ag	0.000000	0.000000	4.310934
O	0.000000	2.155467	6.466401
O	2.155467	0.000000	6.466401
O	2.155467	2.155467	4.310934
Tl	2.155467	2.155467	6.466401
Ag	0.000000	4.310934	0.000000
O	0.000000	6.466401	2.155467
O	2.155467	4.310934	2.155467
O	2.155467	6.466401	0.000000
Tl	2.155467	6.466401	2.155467
Ag	0.000000	4.310934	4.310934
O	0.000000	6.466401	6.466401
O	2.155467	4.310934	6.466401
O	2.155467	6.466401	4.310934
Tl	2.155467	6.466401	6.466401
Ag	4.310934	0.000000	0.000000
O	4.310934	2.155467	2.155467
O	6.466401	0.000000	2.155467
O	6.466401	2.155467	0.000000
Tl	6.466401	2.155467	2.155467
Ag	4.310934	0.000000	4.310934
O	4.310934	2.155467	6.466401
O	6.466401	0.000000	6.466401
O	6.466401	2.155467	4.310934
Tl	6.466401	2.155467	6.466401
Ag	4.310934	4.310934	0.000000
O	4.310934	6.466401	2.155467
O	6.466401	4.310934	2.155467
O	6.466401	6.466401	0.000000
Tl	6.466401	6.466401	2.155467
Ag	4.310934	4.310934	4.310934
O	4.310934	6.466401	6.466401
O	6.466401	4.310934	6.466401
O	6.466401	6.466401	4.310934
Tl	6.466401	6.466401	6.466401
