40

Cu	0.000000	0.000000	0.000000
Ga	1.923013	1.923013	1.923013
O	1.923013	1.923013	0.000000
O	1.923013	0.000000	1.923013
O	0.000000	1.923013	1.923013
Cu	0.000000	0.000000	3.846026
Ga	1.923013	1.923013	5.769039
O	1.923013	1.923013	3.846026
O	1.923013	0.000000	5.769039
O	0.000000	1.923013	5.769039
Cu	0.000000	3.846026	0.000000
Ga	1.923013	5.769039	1.923013
O	1.923013	5.769039	0.000000
O	1.923013	3.846026	1.923013
O	0.000000	5.769039	1.923013
Cu	0.000000	3.846026	3.846026
Ga	1.923013	5.769039	5.769039
O	1.923013	5.769039	3.846026
O	1.923013	3.846026	5.769039
O	0.000000	5.769039	5.769039
Cu	3.846026	0.000000	0.000000
Ga	5.769039	1.923013	1.923013
O	5.769039	1.923013	0.000000
O	5.769039	0.000000	1.923013
O	3.846026	1.923013	1.923013
Cu	3.846026	0.000000	3.846026
Ga	5.769039	1.923013	5.769039
O	5.769039	1.923013	3.846026
O	5.769039	0.000000	5.769039
O	3.846026	1.923013	5.769039
Cu	3.846026	3.846026	0.000000
Ga	5.769039	5.769039	1.923013
O	5.769039	5.769039	0.000000
O	5.769039	3.846026	1.923013
O	3.846026	5.769039	1.923013
Cu	3.846026	3.846026	3.846026
Ga	5.769039	5.769039	5.769039
O	5.769039	5.769039	3.846026
O	5.769039	3.846026	5.769039
O	3.846026	5.769039	5.769039
