40

Cr	1.903605	1.903605	1.903605
O	0.000000	1.903605	1.903605
O	1.903605	0.000000	1.903605
O	1.903605	1.903605	0.000000
Zr	0.000000	0.000000	0.000000
Cr	1.903605	1.903605	5.710816
O	0.000000	1.903605	5.710816
O	1.903605	0.000000	5.710816
O	1.903605	1.903605	3.807211
Zr	0.000000	0.000000	3.807211
Cr	1.903605	5.710816	1.903605
O	0.000000	5.710816	1.903605
O	1.903605	3.807211	1.903605
O	1.903605	5.710816	0.000000
Zr	0.000000	3.807211	0.000000
Cr	1.903605	5.710816	5.710816
O	0.000000	5.710816	5.710816
O	1.903605	3.807211	5.710816
O	1.903605	5.710816	3.807211
Zr	0.000000	3.807211	3.807211
Cr	5.710816	1.903605	1.903605
O	3.807211	1.903605	1.903605
O	5.710816	0.000000	1.903605
O	5.710816	1.903605	0.000000
Zr	3.807211	0.000000	0.000000
Cr	5.710816	1.903605	5.710816
O	3.807211	1.903605	5.710816
O	5.710816	0.000000	5.710816
O	5.710816	1.903605	3.807211
Zr	3.807211	0.000000	3.807211
Cr	5.710816	5.710816	1.903605
O	3.807211	5.710816	1.903605
O	5.710816	3.807211	1.903605
O	5.710816	5.710816	0.000000
Zr	3.807211	3.807211	0.000000
Cr	5.710816	5.710816	5.710816
O	3.807211	5.710816	5.710816
O	5.710816	3.807211	5.710816
O	5.710816	5.710816	3.807211
Zr	3.807211	3.807211	3.807211
