40

Fe	0.000000	0.000000	0.000000
N	1.749043	1.749043	1.749043
O	0.000000	1.749043	1.749043
O	1.749043	0.000000	1.749043
O	1.749043	1.749043	0.000000
Fe	0.000000	0.000000	3.498085
N	1.749043	1.749043	5.247128
O	0.000000	1.749043	5.247128
O	1.749043	0.000000	5.247128
O	1.749043	1.749043	3.498085
Fe	0.000000	3.498085	0.000000
N	1.749043	5.247128	1.749043
O	0.000000	5.247128	1.749043
O	1.749043	3.498085	1.749043
O	1.749043	5.247128	0.000000
Fe	0.000000	3.498085	3.498085
N	1.749043	5.247128	5.247128
O	0.000000	5.247128	5.247128
O	1.749043	3.498085	5.247128
O	1.749043	5.247128	3.498085
Fe	3.498085	0.000000	0.000000
N	5.247128	1.749043	1.749043
O	3.498085	1.749043	1.749043
O	5.247128	0.000000	1.749043
O	5.247128	1.749043	0.000000
Fe	3.498085	0.000000	3.498085
N	5.247128	1.749043	5.247128
O	3.498085	1.749043	5.247128
O	5.247128	0.000000	5.247128
O	5.247128	1.749043	3.498085
Fe	3.498085	3.498085	0.000000
N	5.247128	5.247128	1.749043
O	3.498085	5.247128	1.749043
O	5.247128	3.498085	1.749043
O	5.247128	5.247128	0.000000
Fe	3.498085	3.498085	3.498085
N	5.247128	5.247128	5.247128
O	3.498085	5.247128	5.247128
O	5.247128	3.498085	5.247128
O	5.247128	5.247128	3.498085
