40

O	0.000000	1.918772	1.918772
O	1.918772	0.000000	1.918772
O	1.918772	1.918772	0.000000
Os	0.000000	0.000000	0.000000
S	1.918772	1.918772	1.918772
O	0.000000	1.918772	5.756317
O	1.918772	0.000000	5.756317
O	1.918772	1.918772	3.837545
Os	0.000000	0.000000	3.837545
S	1.918772	1.918772	5.756317
O	0.000000	5.756317	1.918772
O	1.918772	3.837545	1.918772
O	1.918772	5.756317	0.000000
Os	0.000000	3.837545	0.000000
S	1.918772	5.756317	1.918772
O	0.000000	5.756317	5.756317
O	1.918772	3.837545	5.756317
O	1.918772	5.756317	3.837545
Os	0.000000	3.837545	3.837545
S	1.918772	5.756317	5.756317
O	3.837545	1.918772	1.918772
O	5.756317	0.000000	1.918772
O	5.756317	1.918772	0.000000
Os	3.837545	0.000000	0.000000
S	5.756317	1.918772	1.918772
O	3.837545	1.918772	5.756317
O	5.756317	0.000000	5.756317
O	5.756317	1.918772	3.837545
Os	3.837545	0.000000	3.837545
S	5.756317	1.918772	5.756317
O	3.837545	5.756317	1.918772
O	5.756317	3.837545	1.918772
O	5.756317	5.756317	0.000000
Os	3.837545	3.837545	0.000000
S	5.756317	5.756317	1.918772
O	3.837545	5.756317	5.756317
O	5.756317	3.837545	5.756317
O	5.756317	5.756317	3.837545
Os	3.837545	3.837545	3.837545
S	5.756317	5.756317	5.756317
