112

O	3.936430	-1.513714	-1.513714
O	-1.513795	1.513714	-3.936722
O	1.513795	-1.513714	-3.936722
O	1.211317	1.211504	-1.211504
O	6.964019	1.513714	-1.513714
O	1.211317	4.238932	-4.238932
O	4.238907	4.238932	-1.211504
O	4.238907	1.211504	-4.238932
Pb	0.000000	0.000000	0.000000
Pb	2.725112	-2.725218	-2.725218
Rb	-1.362556	-1.362609	-4.087827
Rb	4.087668	1.362609	-1.362609
Rb	6.812781	-1.362609	-1.362609
Rb	1.362556	1.362609	-4.087827
O	9.386654	3.936722	-1.513714
O	3.936430	6.964150	-3.936722
O	6.964019	3.936722	-3.936722
O	6.661542	6.661940	-1.211504
O	12.414244	6.964150	-1.513714
O	6.661542	9.689368	-4.238932
O	9.689132	9.689368	-1.211504
O	9.689132	6.661940	-4.238932
Pb	5.450224	5.450436	0.000000
Pb	8.175337	2.725218	-2.725218
Rb	4.087668	4.087827	-4.087827
Rb	9.537893	6.813045	-1.362609
Rb	12.263005	4.087827	-1.362609
Rb	6.812781	6.813045	-4.087827
O	-1.513795	-1.513714	-6.964150
O	-6.964019	1.513714	-9.387158
O	-3.936430	-1.513714	-9.387158
O	-4.238907	1.211504	-6.661940
O	1.513795	1.513714	-6.964150
O	-4.238907	4.238932	-9.689368
O	-1.211317	4.238932	-6.661940
O	-1.211317	1.211504	-9.689368
Pb	-5.450224	0.000000	-5.450436
Pb	-2.725112	-2.725218	-8.175654
Rb	-6.812781	-1.362609	-9.538263
Rb	-1.362556	1.362609	-6.813045
Rb	1.362556	-1.362609	-6.813045
Rb	-4.087668	1.362609	-9.538263
O	3.936430	3.936722	-6.964150
O	-1.513795	6.964150	-9.387158
O	1.513795	3.936722	-9.387158
O	1.211317	6.661940	-6.661940
O	6.964019	6.964150	-6.964150
O	1.211317	9.689368	-9.689368
O	4.238907	9.689368	-6.661940
O	4.238907	6.661940	-9.689368
Pb	0.000000	5.450436	-5.450436
Pb	2.725112	2.725218	-8.175654
Rb	-1.362556	4.087827	-9.538263
Rb	4.087668	6.813045	-6.813045
Rb	6.812781	4.087827	-6.813045
Rb	1.362556	6.813045	-9.538263
O	9.386654	-6.964150	-1.513714
O	3.936430	-3.936722	-3.936722
O	6.964019	-6.964150	-3.936722
O	6.661542	-4.238932	-1.211504
O	12.414244	-3.936722	-1.513714
O	6.661542	-1.211504	-4.238932
O	9.689132	-1.211504	-1.211504
O	9.689132	-4.238932	-4.238932
Pb	5.450224	-5.450436	0.000000
Pb	8.175337	-8.175654	-2.725218
Rb	4.087668	-6.813045	-4.087827
Rb	9.537893	-4.087827	-1.362609
Rb	12.263005	-6.813045	-1.362609
Rb	6.812781	-4.087827	-4.087827
O	14.836879	-1.513714	-1.513714
O	9.386654	1.513714	-3.936722
O	12.414244	-1.513714	-3.936722
O	12.111766	1.211504	-1.211504
O	17.864468	1.513714	-1.513714
O	12.111766	4.238932	-4.238932
O	15.139356	4.238932	-1.211504
O	15.139356	1.211504	-4.238932
Pb	10.900449	0.000000	0.000000
Pb	13.625561	-2.725218	-2.725218
Rb	9.537893	-1.362609	-4.087827
Rb	14.988117	1.362609	-1.362609
Rb	17.713230	-1.362609	-1.362609
Rb	12.263005	1.362609	-4.087827
O	3.936430	-6.964150	-6.964150
O	-1.513795	-3.936722	-9.387158
O	1.513795	-6.964150	-9.387158
O	1.211317	-4.238932	-6.661940
O	6.964019	-3.936722	-6.964150
O	1.211317	-1.211504	-9.689368
O	4.238907	-1.211504	-6.661940
O	4.238907	-4.238932	-9.689368
Pb	0.000000	-5.450436	-5.450436
Pb	2.725112	-8.175654	-8.175654
Rb	-1.362556	-6.813045	-9.538263
Rb	4.087668	-4.087827	-6.813045
Rb	6.812781	-6.813045	-6.813045
Rb	1.362556	-4.087827	-9.538263
O	9.386654	-1.513714	-6.964150
O	3.936430	1.513714	-9.387158
O	6.964019	-1.513714	-9.387158
O	6.661542	1.211504	-6.661940
O	12.414244	1.513714	-6.964150
O	6.661542	4.238932	-9.689368
O	9.689132	4.238932	-6.661940
O	9.689132	1.211504	-9.689368
Pb	5.450224	0.000000	-5.450436
Pb	8.175337	-2.725218	-8.175654
Rb	4.087668	-1.362609	-9.538263
Rb	9.537893	1.362609	-6.813045
Rb	12.263005	-1.362609	-6.813045
Rb	6.812781	1.362609	-9.538263
