40

Al	0.000000	0.000000	0.000000
O	2.185870	0.000000	2.185870
O	0.000000	2.185870	2.185870
O	2.185870	2.185870	0.000000
Pa	2.185870	2.185870	2.185870
Al	0.000000	0.000000	4.371755
O	2.185870	0.000000	6.557625
O	0.000000	2.185870	6.557625
O	2.185870	2.185870	4.371755
Pa	2.185870	2.185870	6.557625
Al	0.000000	4.371755	0.000000
O	2.185870	4.371755	2.185870
O	0.000000	6.557625	2.185870
O	2.185870	6.557625	0.000000
Pa	2.185870	6.557625	2.185870
Al	0.000000	4.371755	4.371755
O	2.185870	4.371755	6.557625
O	0.000000	6.557625	6.557625
O	2.185870	6.557625	4.371755
Pa	2.185870	6.557625	6.557625
Al	4.371755	0.000000	0.000000
O	6.557625	0.000000	2.185870
O	4.371755	2.185870	2.185870
O	6.557625	2.185870	0.000000
Pa	6.557625	2.185870	2.185870
Al	4.371755	0.000000	4.371755
O	6.557625	0.000000	6.557625
O	4.371755	2.185870	6.557625
O	6.557625	2.185870	4.371755
Pa	6.557625	2.185870	6.557625
Al	4.371755	4.371755	0.000000
O	6.557625	4.371755	2.185870
O	4.371755	6.557625	2.185870
O	6.557625	6.557625	0.000000
Pa	6.557625	6.557625	2.185870
Al	4.371755	4.371755	4.371755
O	6.557625	4.371755	6.557625
O	4.371755	6.557625	6.557625
O	6.557625	6.557625	4.371755
Pa	6.557625	6.557625	6.557625
