40

Be	0.000000	0.000000	0.000000
Cu	1.834021	1.834021	1.834021
O	0.000000	1.834021	1.834021
O	1.834021	0.000000	1.834021
O	1.834021	1.834021	0.000000
Be	0.000000	0.000000	3.668042
Cu	1.834021	1.834021	5.502063
O	0.000000	1.834021	5.502063
O	1.834021	0.000000	5.502063
O	1.834021	1.834021	3.668042
Be	0.000000	3.668042	0.000000
Cu	1.834021	5.502063	1.834021
O	0.000000	5.502063	1.834021
O	1.834021	3.668042	1.834021
O	1.834021	5.502063	0.000000
Be	0.000000	3.668042	3.668042
Cu	1.834021	5.502063	5.502063
O	0.000000	5.502063	5.502063
O	1.834021	3.668042	5.502063
O	1.834021	5.502063	3.668042
Be	3.668042	0.000000	0.000000
Cu	5.502063	1.834021	1.834021
O	3.668042	1.834021	1.834021
O	5.502063	0.000000	1.834021
O	5.502063	1.834021	0.000000
Be	3.668042	0.000000	3.668042
Cu	5.502063	1.834021	5.502063
O	3.668042	1.834021	5.502063
O	5.502063	0.000000	5.502063
O	5.502063	1.834021	3.668042
Be	3.668042	3.668042	0.000000
Cu	5.502063	5.502063	1.834021
O	3.668042	5.502063	1.834021
O	5.502063	3.668042	1.834021
O	5.502063	5.502063	0.000000
Be	3.668042	3.668042	3.668042
Cu	5.502063	5.502063	5.502063
O	3.668042	5.502063	5.502063
O	5.502063	3.668042	5.502063
O	5.502063	5.502063	3.668042
