40

Co	1.832254	1.832254	1.832254
Ir	0.000000	0.000000	0.000000
O	1.832254	1.832254	0.000000
O	1.832254	0.000000	1.832254
O	0.000000	1.832254	1.832254
Co	1.832254	1.832254	5.496766
Ir	0.000000	0.000000	3.664512
O	1.832254	1.832254	3.664512
O	1.832254	0.000000	5.496766
O	0.000000	1.832254	5.496766
Co	1.832254	5.496766	1.832254
Ir	0.000000	3.664512	0.000000
O	1.832254	5.496766	0.000000
O	1.832254	3.664512	1.832254
O	0.000000	5.496766	1.832254
Co	1.832254	5.496766	5.496766
Ir	0.000000	3.664512	3.664512
O	1.832254	5.496766	3.664512
O	1.832254	3.664512	5.496766
O	0.000000	5.496766	5.496766
Co	5.496766	1.832254	1.832254
Ir	3.664512	0.000000	0.000000
O	5.496766	1.832254	0.000000
O	5.496766	0.000000	1.832254
O	3.664512	1.832254	1.832254
Co	5.496766	1.832254	5.496766
Ir	3.664512	0.000000	3.664512
O	5.496766	1.832254	3.664512
O	5.496766	0.000000	5.496766
O	3.664512	1.832254	5.496766
Co	5.496766	5.496766	1.832254
Ir	3.664512	3.664512	0.000000
O	5.496766	5.496766	0.000000
O	5.496766	3.664512	1.832254
O	3.664512	5.496766	1.832254
Co	5.496766	5.496766	5.496766
Ir	3.664512	3.664512	3.664512
O	5.496766	5.496766	3.664512
O	5.496766	3.664512	5.496766
O	3.664512	5.496766	5.496766
