40

Na	1.959426	1.959426	1.959426
O	0.000000	1.959426	1.959426
O	1.959426	0.000000	1.959426
O	1.959426	1.959426	0.000000
Sc	0.000000	0.000000	0.000000
Na	1.959426	1.959426	5.878279
O	0.000000	1.959426	5.878279
O	1.959426	0.000000	5.878279
O	1.959426	1.959426	3.918852
Sc	0.000000	0.000000	3.918852
Na	1.959426	5.878279	1.959426
O	0.000000	5.878279	1.959426
O	1.959426	3.918852	1.959426
O	1.959426	5.878279	0.000000
Sc	0.000000	3.918852	0.000000
Na	1.959426	5.878279	5.878279
O	0.000000	5.878279	5.878279
O	1.959426	3.918852	5.878279
O	1.959426	5.878279	3.918852
Sc	0.000000	3.918852	3.918852
Na	5.878279	1.959426	1.959426
O	3.918852	1.959426	1.959426
O	5.878279	0.000000	1.959426
O	5.878279	1.959426	0.000000
Sc	3.918852	0.000000	0.000000
Na	5.878279	1.959426	5.878279
O	3.918852	1.959426	5.878279
O	5.878279	0.000000	5.878279
O	5.878279	1.959426	3.918852
Sc	3.918852	0.000000	3.918852
Na	5.878279	5.878279	1.959426
O	3.918852	5.878279	1.959426
O	5.878279	3.918852	1.959426
O	5.878279	5.878279	0.000000
Sc	3.918852	3.918852	0.000000
Na	5.878279	5.878279	5.878279
O	3.918852	5.878279	5.878279
O	5.878279	3.918852	5.878279
O	5.878279	5.878279	3.918852
Sc	3.918852	3.918852	3.918852
