40

Na	0.000000	0.000000	0.000000
O	0.000000	2.098347	2.098347
O	2.098347	0.000000	2.098347
O	2.098347	2.098347	0.000000
Sc	2.098347	2.098347	2.098347
Na	0.000000	0.000000	4.196694
O	0.000000	2.098347	6.295041
O	2.098347	0.000000	6.295041
O	2.098347	2.098347	4.196694
Sc	2.098347	2.098347	6.295041
Na	0.000000	4.196694	0.000000
O	0.000000	6.295041	2.098347
O	2.098347	4.196694	2.098347
O	2.098347	6.295041	0.000000
Sc	2.098347	6.295041	2.098347
Na	0.000000	4.196694	4.196694
O	0.000000	6.295041	6.295041
O	2.098347	4.196694	6.295041
O	2.098347	6.295041	4.196694
Sc	2.098347	6.295041	6.295041
Na	4.196694	0.000000	0.000000
O	4.196694	2.098347	2.098347
O	6.295041	0.000000	2.098347
O	6.295041	2.098347	0.000000
Sc	6.295041	2.098347	2.098347
Na	4.196694	0.000000	4.196694
O	4.196694	2.098347	6.295041
O	6.295041	0.000000	6.295041
O	6.295041	2.098347	4.196694
Sc	6.295041	2.098347	6.295041
Na	4.196694	4.196694	0.000000
O	4.196694	6.295041	2.098347
O	6.295041	4.196694	2.098347
O	6.295041	6.295041	0.000000
Sc	6.295041	6.295041	2.098347
Na	4.196694	4.196694	4.196694
O	4.196694	6.295041	6.295041
O	6.295041	4.196694	6.295041
O	6.295041	6.295041	4.196694
Sc	6.295041	6.295041	6.295041
