40

Na	1.934840	1.934840	1.934840
O	1.934840	1.934840	0.000000
O	0.000000	1.934840	1.934840
O	1.934840	0.000000	1.934840
Sc	0.000000	0.000000	0.000000
Na	1.934840	1.934840	5.804523
O	1.934840	1.934840	3.869683
O	0.000000	1.934840	5.804523
O	1.934840	0.000000	5.804523
Sc	0.000000	0.000000	3.869683
Na	1.934840	5.804523	1.934840
O	1.934840	5.804523	0.000000
O	0.000000	5.804523	1.934840
O	1.934840	3.869683	1.934840
Sc	0.000000	3.869683	0.000000
Na	1.934840	5.804523	5.804523
O	1.934840	5.804523	3.869683
O	0.000000	5.804523	5.804523
O	1.934840	3.869683	5.804523
Sc	0.000000	3.869683	3.869683
Na	5.804523	1.934840	1.934840
O	5.804523	1.934840	0.000000
O	3.869683	1.934840	1.934840
O	5.804523	0.000000	1.934840
Sc	3.869683	0.000000	0.000000
Na	5.804523	1.934840	5.804523
O	5.804523	1.934840	3.869683
O	3.869683	1.934840	5.804523
O	5.804523	0.000000	5.804523
Sc	3.869683	0.000000	3.869683
Na	5.804523	5.804523	1.934840
O	5.804523	5.804523	0.000000
O	3.869683	5.804523	1.934840
O	5.804523	3.869683	1.934840
Sc	3.869683	3.869683	0.000000
Na	5.804523	5.804523	5.804523
O	5.804523	5.804523	3.869683
O	3.869683	5.804523	5.804523
O	5.804523	3.869683	5.804523
Sc	3.869683	3.869683	3.869683
