40

O	1.988470	1.988470	0.000000
O	0.000000	1.988470	1.988470
O	1.988470	0.000000	1.988470
Pd	1.988470	1.988470	1.988470
Pm_3	0.000000	0.000000	0.000000
O	1.988470	1.988470	3.976938
O	0.000000	1.988470	5.965408
O	1.988470	0.000000	5.965408
Pd	1.988470	1.988470	5.965408
Pm_3	0.000000	0.000000	3.976938
O	1.988470	5.965408	0.000000
O	0.000000	5.965408	1.988470
O	1.988470	3.976938	1.988470
Pd	1.988470	5.965408	1.988470
Pm_3	0.000000	3.976938	0.000000
O	1.988470	5.965408	3.976938
O	0.000000	5.965408	5.965408
O	1.988470	3.976938	5.965408
Pd	1.988470	5.965408	5.965408
Pm_3	0.000000	3.976938	3.976938
O	5.965408	1.988470	0.000000
O	3.976938	1.988470	1.988470
O	5.965408	0.000000	1.988470
Pd	5.965408	1.988470	1.988470
Pm_3	3.976938	0.000000	0.000000
O	5.965408	1.988470	3.976938
O	3.976938	1.988470	5.965408
O	5.965408	0.000000	5.965408
Pd	5.965408	1.988470	5.965408
Pm_3	3.976938	0.000000	3.976938
O	5.965408	5.965408	0.000000
O	3.976938	5.965408	1.988470
O	5.965408	3.976938	1.988470
Pd	5.965408	5.965408	1.988470
Pm_3	3.976938	3.976938	0.000000
O	5.965408	5.965408	3.976938
O	3.976938	5.965408	5.965408
O	5.965408	3.976938	5.965408
Pd	5.965408	5.965408	5.965408
Pm_3	3.976938	3.976938	3.976938
