40

Na	0.000000	0.000000	0.000000
O	1.970760	1.970760	0.000000
O	0.000000	1.970760	1.970760
O	1.970760	0.000000	1.970760
Pt	1.970760	1.970760	1.970760
Na	0.000000	0.000000	3.941516
O	1.970760	1.970760	3.941516
O	0.000000	1.970760	5.912276
O	1.970760	0.000000	5.912276
Pt	1.970760	1.970760	5.912276
Na	0.000000	3.941516	0.000000
O	1.970760	5.912276	0.000000
O	0.000000	5.912276	1.970760
O	1.970760	3.941516	1.970760
Pt	1.970760	5.912276	1.970760
Na	0.000000	3.941516	3.941516
O	1.970760	5.912276	3.941516
O	0.000000	5.912276	5.912276
O	1.970760	3.941516	5.912276
Pt	1.970760	5.912276	5.912276
Na	3.941516	0.000000	0.000000
O	5.912276	1.970760	0.000000
O	3.941516	1.970760	1.970760
O	5.912276	0.000000	1.970760
Pt	5.912276	1.970760	1.970760
Na	3.941516	0.000000	3.941516
O	5.912276	1.970760	3.941516
O	3.941516	1.970760	5.912276
O	5.912276	0.000000	5.912276
Pt	5.912276	1.970760	5.912276
Na	3.941516	3.941516	0.000000
O	5.912276	5.912276	0.000000
O	3.941516	5.912276	1.970760
O	5.912276	3.941516	1.970760
Pt	5.912276	5.912276	1.970760
Na	3.941516	3.941516	3.941516
O	5.912276	5.912276	3.941516
O	3.941516	5.912276	5.912276
O	5.912276	3.941516	5.912276
Pt	5.912276	5.912276	5.912276
