40

Fe	1.886040	1.886040	1.886040
O	1.886040	1.886040	0.000000
O	0.000000	1.886040	1.886040
O	1.886040	0.000000	1.886040
Tc_pv	0.000000	0.000000	0.000000
Fe	1.886040	1.886040	5.658124
O	1.886040	1.886040	3.772084
O	0.000000	1.886040	5.658124
O	1.886040	0.000000	5.658124
Tc_pv	0.000000	0.000000	3.772084
Fe	1.886040	5.658124	1.886040
O	1.886040	5.658124	0.000000
O	0.000000	5.658124	1.886040
O	1.886040	3.772084	1.886040
Tc_pv	0.000000	3.772084	0.000000
Fe	1.886040	5.658124	5.658124
O	1.886040	5.658124	3.772084
O	0.000000	5.658124	5.658124
O	1.886040	3.772084	5.658124
Tc_pv	0.000000	3.772084	3.772084
Fe	5.658124	1.886040	1.886040
O	5.658124	1.886040	0.000000
O	3.772084	1.886040	1.886040
O	5.658124	0.000000	1.886040
Tc_pv	3.772084	0.000000	0.000000
Fe	5.658124	1.886040	5.658124
O	5.658124	1.886040	3.772084
O	3.772084	1.886040	5.658124
O	5.658124	0.000000	5.658124
Tc_pv	3.772084	0.000000	3.772084
Fe	5.658124	5.658124	1.886040
O	5.658124	5.658124	0.000000
O	3.772084	5.658124	1.886040
O	5.658124	3.772084	1.886040
Tc_pv	3.772084	3.772084	0.000000
Fe	5.658124	5.658124	5.658124
O	5.658124	5.658124	3.772084
O	3.772084	5.658124	5.658124
O	5.658124	3.772084	5.658124
Tc_pv	3.772084	3.772084	3.772084
