112

Ag	0.000000	0.000000	0.000000
Ag	2.521363	-2.521795	-2.521795
Ce	-1.260682	-1.260898	-3.782693
Ce	3.782045	1.260898	-1.260898
Ce	6.303408	-1.260898	-1.260898
Ce	1.260682	1.260898	-3.782693
O	3.890936	-1.151434	-1.151434
O	-1.151790	1.151434	-3.892156
O	1.151790	-1.151434	-3.892156
O	1.369573	1.370361	-1.370361
O	6.194516	1.151434	-1.151434
O	1.369573	3.673229	-3.673229
O	3.673153	3.673229	-1.370361
O	3.673153	1.370361	-3.673229
Ag	5.042726	5.043590	0.000000
Ag	7.564090	2.521795	-2.521795
Ce	3.782045	3.782693	-3.782693
Ce	8.824771	6.304488	-1.260898
Ce	11.346135	3.782693	-1.260898
Ce	6.303408	6.304488	-3.782693
O	8.933663	3.892156	-1.151434
O	3.890936	6.195024	-3.892156
O	6.194517	3.892156	-3.892156
O	6.412300	6.413951	-1.370361
O	11.237243	6.195024	-1.151434
O	6.412300	8.716819	-3.673229
O	8.715880	8.716819	-1.370361
O	8.715880	6.413951	-3.673229
Ag	-5.042726	0.000000	-5.043590
Ag	-2.521363	-2.521795	-7.565385
Ce	-6.303408	-1.260898	-8.826283
Ce	-1.260682	1.260898	-6.304488
Ce	1.260682	-1.260898	-6.304488
Ce	-3.782045	1.260898	-8.826283
O	-1.151790	-1.151434	-6.195024
O	-6.194516	1.151434	-8.935746
O	-3.890936	-1.151434	-8.935746
O	-3.673153	1.370361	-6.413951
O	1.151790	1.151434	-6.195024
O	-3.673153	3.673229	-8.716819
O	-1.369573	3.673229	-6.413951
O	-1.369573	1.370361	-8.716819
Ag	0.000000	5.043590	-5.043590
Ag	2.521363	2.521795	-7.565385
Ce	-1.260682	3.782693	-8.826283
Ce	3.782045	6.304488	-6.304488
Ce	6.303408	3.782693	-6.304488
Ce	1.260682	6.304488	-8.826283
O	3.890936	3.892156	-6.195024
O	-1.151790	6.195024	-8.935746
O	1.151790	3.892156	-8.935746
O	1.369573	6.413951	-6.413951
O	6.194516	6.195024	-6.195024
O	1.369573	8.716819	-8.716819
O	3.673153	8.716819	-6.413951
O	3.673153	6.413951	-8.716819
Ag	5.042726	-5.043590	0.000000
Ag	7.564090	-7.565385	-2.521795
Ce	3.782045	-6.304488	-3.782693
Ce	8.824771	-3.782693	-1.260898
Ce	11.346135	-6.304488	-1.260898
Ce	6.303408	-3.782693	-3.782693
O	8.933663	-6.195024	-1.151434
O	3.890936	-3.892156	-3.892156
O	6.194517	-6.195024	-3.892156
O	6.412300	-3.673229	-1.370361
O	11.237243	-3.892156	-1.151434
O	6.412300	-1.370361	-3.673229
O	8.715880	-1.370361	-1.370361
O	8.715880	-3.673229	-3.673229
Ag	10.085453	0.000000	0.000000
Ag	12.606816	-2.521795	-2.521795
Ce	8.824771	-1.260898	-3.782693
Ce	13.867498	1.260898	-1.260898
Ce	16.388861	-1.260898	-1.260898
Ce	11.346135	1.260898	-3.782693
O	13.976389	-1.151434	-1.151434
O	8.933663	1.151434	-3.892156
O	11.237243	-1.151434	-3.892156
O	11.455026	1.370361	-1.370361
O	16.279969	1.151434	-1.151434
O	11.455026	3.673229	-3.673229
O	13.758606	3.673229	-1.370361
O	13.758606	1.370361	-3.673229
Ag	0.000000	-5.043590	-5.043590
Ag	2.521363	-7.565385	-7.565385
Ce	-1.260682	-6.304488	-8.826283
Ce	3.782045	-3.782693	-6.304488
Ce	6.303408	-6.304488	-6.304488
Ce	1.260682	-3.782693	-8.826283
O	3.890936	-6.195024	-6.195024
O	-1.151790	-3.892156	-8.935746
O	1.151790	-6.195024	-8.935746
O	1.369573	-3.673229	-6.413951
O	6.194516	-3.892156	-6.195024
O	1.369573	-1.370361	-8.716819
O	3.673153	-1.370361	-6.413951
O	3.673153	-3.673229	-8.716819
Ag	5.042726	0.000000	-5.043590
Ag	7.564090	-2.521795	-7.565385
Ce	3.782045	-1.260898	-8.826283
Ce	8.824771	1.260898	-6.304488
Ce	11.346135	-1.260898	-6.304488
Ce	6.303408	1.260898	-8.826283
O	8.933663	-1.151434	-6.195024
O	3.890936	1.151434	-8.935746
O	6.194517	-1.151434	-8.935746
O	6.412300	1.370361	-6.413951
O	11.237243	1.151434	-6.195024
O	6.412300	3.673229	-8.716819
O	8.715880	3.673229	-6.413951
O	8.715880	1.370361	-8.716819
