40

Nd	2.271563	2.271563	2.271563
O	2.271563	2.271563	0.000000
O	2.271563	0.000000	2.271563
O	0.000000	2.271563	2.271563
Te	0.000000	0.000000	0.000000
Nd	2.271563	2.271563	6.814688
O	2.271563	2.271563	4.543126
O	2.271563	0.000000	6.814688
O	0.000000	2.271563	6.814688
Te	0.000000	0.000000	4.543126
Nd	2.271563	6.814688	2.271563
O	2.271563	6.814688	0.000000
O	2.271563	4.543126	2.271563
O	0.000000	6.814688	2.271563
Te	0.000000	4.543126	0.000000
Nd	2.271563	6.814688	6.814688
O	2.271563	6.814688	4.543126
O	2.271563	4.543126	6.814688
O	0.000000	6.814688	6.814688
Te	0.000000	4.543126	4.543126
Nd	6.814688	2.271563	2.271563
O	6.814688	2.271563	0.000000
O	6.814688	0.000000	2.271563
O	4.543126	2.271563	2.271563
Te	4.543126	0.000000	0.000000
Nd	6.814688	2.271563	6.814688
O	6.814688	2.271563	4.543126
O	6.814688	0.000000	6.814688
O	4.543126	2.271563	6.814688
Te	4.543126	0.000000	4.543126
Nd	6.814688	6.814688	2.271563
O	6.814688	6.814688	0.000000
O	6.814688	4.543126	2.271563
O	4.543126	6.814688	2.271563
Te	4.543126	4.543126	0.000000
Nd	6.814688	6.814688	6.814688
O	6.814688	6.814688	4.543126
O	6.814688	4.543126	6.814688
O	4.543126	6.814688	6.814688
Te	4.543126	4.543126	4.543126
