112

Mg	0.000000	0.000000	0.000000
Mg	2.385806	-2.386020	-2.386020
O	3.604954	-1.166473	-1.166473
O	-1.166649	1.166473	-3.605567
O	1.166649	-1.166473	-3.605567
O	1.219148	1.219547	-1.219547
O	5.938261	1.166473	-1.166473
O	1.219148	3.552493	-3.552493
O	3.552455	3.552493	-1.219547
O	3.552455	1.219547	-3.552493
Pm	-1.192898	-1.193005	-3.579025
Pm	3.578704	1.193005	-1.193005
Pm	1.192898	1.193005	-3.579025
Pm	5.964510	-1.193005	-1.193005
Mg	4.771611	4.772038	0.000000
Mg	7.157417	2.386018	-2.386020
O	8.376565	3.605565	-1.166473
O	3.604962	5.938511	-3.605567
O	5.938260	3.605565	-3.605567
O	5.990759	5.991585	-1.219547
O	10.709872	5.938511	-1.166473
O	5.990759	8.324531	-3.552493
O	8.324066	8.324531	-1.219547
O	8.324066	5.991585	-3.552493
Pm	3.578713	3.579033	-3.579025
Pm	8.350315	5.965043	-1.193005
Pm	5.964509	5.965043	-3.579025
Pm	10.736121	3.579033	-1.193005
Mg	-4.771611	0.000000	-4.772038
Mg	-2.385805	-2.386020	-7.158058
O	-1.166657	-1.166473	-5.938511
O	-5.938260	1.166473	-8.377605
O	-3.604962	-1.166473	-8.377605
O	-3.552463	1.219547	-5.991585
O	1.166650	1.166473	-5.938511
O	-3.552463	3.552493	-8.324531
O	-1.219156	3.552493	-5.991585
O	-1.219156	1.219547	-8.324531
Pm	-5.964509	-1.193005	-8.351063
Pm	-1.192907	1.193005	-5.965043
Pm	-3.578713	1.193005	-8.351063
Pm	1.192899	-1.193005	-5.965043
Mg	0.000000	4.772038	-4.772038
Mg	2.385806	2.386018	-7.158058
O	3.604954	3.605565	-5.938511
O	-1.166649	5.938511	-8.377605
O	1.166649	3.605565	-8.377605
O	1.219148	5.991585	-5.991585
O	5.938261	5.938511	-5.938511
O	1.219148	8.324531	-8.324531
O	3.552455	8.324531	-5.991585
O	3.552455	5.991585	-8.324531
Pm	-1.192898	3.579033	-8.351063
Pm	3.578704	5.965043	-5.965043
Pm	1.192898	5.965043	-8.351063
Pm	5.964510	3.579033	-5.965043
Mg	4.771611	-4.772038	0.000000
Mg	7.157417	-7.158058	-2.386020
O	8.376565	-5.938511	-1.166473
O	3.604962	-3.605565	-3.605567
O	5.938260	-5.938511	-3.605567
O	5.990759	-3.552491	-1.219547
O	10.709872	-3.605565	-1.166473
O	5.990759	-1.219545	-3.552493
O	8.324066	-1.219545	-1.219547
O	8.324066	-3.552491	-3.552493
Pm	3.578713	-5.965043	-3.579025
Pm	8.350315	-3.579033	-1.193005
Pm	5.964509	-3.579033	-3.579025
Pm	10.736121	-5.965043	-1.193005
Mg	9.543222	0.000000	0.000000
Mg	11.929028	-2.386020	-2.386020
O	13.148176	-1.166473	-1.166473
O	8.376573	1.166473	-3.605567
O	10.709870	-1.166473	-3.605567
O	10.762369	1.219547	-1.219547
O	15.481483	1.166473	-1.166473
O	10.762369	3.552493	-3.552493
O	13.095677	3.552493	-1.219547
O	13.095677	1.219547	-3.552493
Pm	8.350324	-1.193005	-3.579025
Pm	13.121926	1.193005	-1.193005
Pm	10.736120	1.193005	-3.579025
Pm	15.507732	-1.193005	-1.193005
Mg	0.000000	-4.772038	-4.772038
Mg	2.385806	-7.158058	-7.158058
O	3.604954	-5.938511	-5.938511
O	-1.166649	-3.605565	-8.377605
O	1.166649	-5.938511	-8.377605
O	1.219148	-3.552491	-5.991585
O	5.938261	-3.605565	-5.938511
O	1.219148	-1.219545	-8.324531
O	3.552455	-1.219545	-5.991585
O	3.552455	-3.552491	-8.324531
Pm	-1.192898	-5.965043	-8.351063
Pm	3.578704	-3.579033	-5.965043
Pm	1.192898	-3.579033	-8.351063
Pm	5.964510	-5.965043	-5.965043
Mg	4.771611	0.000000	-4.772038
Mg	7.157417	-2.386020	-7.158058
O	8.376565	-1.166473	-5.938511
O	3.604962	1.166473	-8.377605
O	5.938260	-1.166473	-8.377605
O	5.990759	1.219547	-5.991585
O	10.709872	1.166473	-5.938511
O	5.990759	3.552493	-8.324531
O	8.324066	3.552493	-5.991585
O	8.324066	1.219547	-8.324531
Pm	3.578713	-1.193005	-8.351063
Pm	8.350315	1.193005	-5.965043
Pm	5.964509	1.193005	-8.351063
Pm	10.736121	-1.193005	-5.965043
