176

O	5.389788	3.811155	9.335386
O	3.233873	2.286693	5.601232
O	4.064472	5.685435	11.630900
O	1.908557	4.160973	7.896746
O	6.715103	1.936876	11.630900
O	8.040419	5.685435	9.335386
O	2.739156	1.936876	9.335386
O	4.064472	5.685435	7.039872
O	6.715103	1.936876	7.039872
O	5.884504	4.160973	5.601232
O	0.583241	0.412414	5.601232
O	4.559188	0.412414	3.305717
O	4.559188	0.412414	7.896746
O	1.908557	4.160973	3.305717
Nb	1.077958	3.048924	1.867077
Nb	3.233873	0.000000	1.867077
Nb	0.000000	0.000000	3.734154
Nb	0.000000	0.000000	0.000000
Cd	3.233873	0.000000	5.601232
Cd	1.077958	3.048924	5.601232
Cd	4.311830	3.048924	3.734154
Cd	4.311830	3.048924	7.468309
O	5.389788	3.811155	16.803695
O	3.233873	2.286693	13.069540
O	4.064472	5.685435	19.099209
O	1.908557	4.160973	15.365055
O	6.715103	1.936876	19.099209
O	8.040419	5.685435	16.803695
O	2.739156	1.936876	16.803695
O	4.064472	5.685435	14.508181
O	6.715103	1.936876	14.508181
O	5.884504	4.160973	13.069540
O	0.583241	0.412414	13.069540
O	4.559188	0.412414	10.774026
O	4.559188	0.412414	15.365055
O	1.908557	4.160973	10.774026
Nb	1.077958	3.048924	9.335386
Nb	3.233873	0.000000	9.335386
Nb	0.000000	0.000000	11.202463
Nb	0.000000	0.000000	7.468309
Cd	3.233873	0.000000	13.069540
Cd	1.077958	3.048924	13.069540
Cd	4.311830	3.048924	11.202463
Cd	4.311830	3.048924	14.936618
O	7.545703	9.909004	13.069540
O	5.389788	8.384542	9.335386
O	6.220387	11.783284	15.365055
O	4.064472	10.258821	11.630900
O	8.871018	8.034724	15.365055
O	10.196334	11.783284	13.069540
O	4.895071	8.034724	13.069540
O	6.220387	11.783284	10.774026
O	8.871018	8.034724	10.774026
O	8.040419	10.258821	9.335386
O	2.739156	6.510262	9.335386
O	6.715103	6.510262	7.039872
O	6.715103	6.510262	11.630900
O	4.064472	10.258821	7.039872
Nb	3.233873	9.146773	5.601232
Nb	5.389788	6.097849	5.601232
Nb	2.155915	6.097849	7.468309
Nb	2.155915	6.097849	3.734154
Cd	5.389788	6.097849	9.335386
Cd	3.233873	9.146773	9.335386
Cd	6.467745	9.146773	7.468309
Cd	6.467745	9.146773	11.202463
O	7.545703	9.909004	20.537849
O	5.389788	8.384542	16.803695
O	6.220387	11.783284	22.833363
O	4.064472	10.258821	19.099209
O	8.871018	8.034724	22.833363
O	10.196334	11.783284	20.537849
O	4.895071	8.034724	20.537849
O	6.220387	11.783284	18.242335
O	8.871018	8.034724	18.242335
O	8.040419	10.258821	16.803695
O	2.739156	6.510262	16.803695
O	6.715103	6.510262	14.508181
O	6.715103	6.510262	19.099209
O	4.064472	10.258821	14.508181
Nb	3.233873	9.146773	13.069540
Nb	5.389788	6.097849	13.069540
Nb	2.155915	6.097849	14.936618
Nb	2.155915	6.097849	11.202463
Cd	5.389788	6.097849	16.803695
Cd	3.233873	9.146773	16.803695
Cd	6.467745	9.146773	14.936618
Cd	6.467745	9.146773	18.670772
O	11.857533	3.811155	13.069540
O	9.701618	2.286693	9.335386
O	10.532217	5.685435	15.365055
O	8.376302	4.160973	11.630900
O	13.182849	1.936876	15.365055
O	14.508164	5.685435	13.069540
O	9.206901	1.936876	13.069540
O	10.532217	5.685435	10.774026
O	13.182849	1.936876	10.774026
O	12.352249	4.160973	9.335386
O	7.050986	0.412414	9.335386
O	11.026933	0.412414	7.039872
O	11.026933	0.412414	11.630900
O	8.376302	4.160973	7.039872
Nb	7.545703	3.048924	5.601232
Nb	9.701618	0.000000	5.601232
Nb	6.467745	0.000000	7.468309
Nb	6.467745	0.000000	3.734154
Cd	9.701618	0.000000	9.335386
Cd	7.545703	3.048924	9.335386
Cd	10.779575	3.048924	7.468309
Cd	10.779575	3.048924	11.202463
O	11.857533	3.811155	20.537849
O	9.701618	2.286693	16.803695
O	10.532217	5.685435	22.833363
O	8.376302	4.160973	19.099209
O	13.182849	1.936876	22.833363
O	14.508164	5.685435	20.537849
O	9.206901	1.936876	20.537849
O	10.532217	5.685435	18.242335
O	13.182849	1.936876	18.242335
O	12.352249	4.160973	16.803695
O	7.050986	0.412414	16.803695
O	11.026933	0.412414	14.508181
O	11.026933	0.412414	19.099209
O	8.376302	4.160973	14.508181
Nb	7.545703	3.048924	13.069540
Nb	9.701618	0.000000	13.069540
Nb	6.467745	0.000000	14.936618
Nb	6.467745	0.000000	11.202463
Cd	9.701618	0.000000	16.803695
Cd	7.545703	3.048924	16.803695
Cd	10.779575	3.048924	14.936618
Cd	10.779575	3.048924	18.670772
O	14.013448	9.909004	16.803695
O	11.857533	8.384542	13.069540
O	12.688132	11.783284	19.099209
O	10.532217	10.258821	15.365055
O	15.338764	8.034724	19.099209
O	16.664079	11.783284	16.803695
O	11.362816	8.034724	16.803695
O	12.688132	11.783284	14.508181
O	15.338764	8.034724	14.508181
O	14.508164	10.258821	13.069540
O	9.206901	6.510262	13.069540
O	13.182849	6.510262	10.774026
O	13.182849	6.510262	15.365055
O	10.532217	10.258821	10.774026
Nb	9.701618	9.146773	9.335386
Nb	11.857533	6.097849	9.335386
Nb	8.623660	6.097849	11.202463
Nb	8.623660	6.097849	7.468309
Cd	11.857533	6.097849	13.069540
Cd	9.701618	9.146773	13.069540
Cd	12.935490	9.146773	11.202463
Cd	12.935490	9.146773	14.936618
O	14.013448	9.909004	24.272004
O	11.857533	8.384542	20.537849
O	12.688132	11.783284	26.567518
O	10.532217	10.258821	22.833363
O	15.338764	8.034724	26.567518
O	16.664079	11.783284	24.272004
O	11.362816	8.034724	24.272004
O	12.688132	11.783284	21.976489
O	15.338764	8.034724	21.976489
O	14.508164	10.258821	20.537849
O	9.206901	6.510262	20.537849
O	13.182849	6.510262	18.242335
O	13.182849	6.510262	22.833363
O	10.532217	10.258821	18.242335
Nb	9.701618	9.146773	16.803695
Nb	11.857533	6.097849	16.803695
Nb	8.623660	6.097849	18.670772
Nb	8.623660	6.097849	14.936618
Cd	11.857533	6.097849	20.537849
Cd	9.701618	9.146773	20.537849
Cd	12.935490	9.146773	18.670772
Cd	12.935490	9.146773	22.404926
