440

Zn	2.106126	2.132327	2.132327
Zn	4.238453	0.000000	4.238453
Zn	2.106126	6.344578	6.344578
Zn	4.238453	4.238453	0.000000
Zn	6.370780	2.132327	6.344578
Zn	0.000000	0.000000	0.000000
Zn	6.370780	6.344578	2.132327
Ga	1.056584	7.421540	3.181869
Ga	3.181981	1.056472	7.420434
Ga	3.183087	3.181869	5.295036
Ga	1.056584	1.055365	5.295036
Ga	1.056584	3.181869	7.421540
Ga	3.183087	5.295036	3.181869
Ga	3.181981	7.420434	1.056472
Ga	1.056584	5.295036	1.055365
Ga	5.294924	7.420434	7.420434
Ga	7.420321	1.055365	3.181869
Ga	7.420321	3.181869	1.055365
Ga	5.294924	1.056472	1.056472
Ga	5.293818	3.181869	3.181869
Ga	7.420321	5.295036	7.421540
Ga	7.420321	7.421540	5.295036
Ga	5.293818	5.295036	5.295036
O	3.275238	0.963214	0.963214
O	5.191090	3.275515	5.201390
O	5.201667	0.963214	7.513691
O	3.285816	3.275515	3.275515
O	3.096579	1.141874	5.402739
O	1.164286	7.335031	1.141874
O	1.164286	1.141874	7.335031
O	3.096579	7.335031	3.074167
O	3.285816	5.201390	5.201390
O	5.201667	7.513691	0.963214
O	5.191090	5.201390	3.275515
O	3.275238	7.513691	7.513691
O	3.096579	5.402739	1.141874
O	1.227655	3.010797	5.466108
O	1.227655	5.466108	3.010797
O	3.096579	3.074167	7.335031
O	7.513968	0.952637	5.201390
O	0.962937	3.275515	0.952637
O	0.962937	0.952637	3.275515
O	7.513968	3.275515	7.524268
O	7.312619	1.141874	1.141874
O	5.380327	7.335031	5.402739
O	5.380327	1.141874	3.074167
O	7.312619	7.335031	7.335031
O	7.513968	5.201390	0.952637
O	0.962937	7.524268	5.201390
O	0.962937	5.201390	7.524268
O	7.513968	7.524268	3.275515
O	7.249250	5.466108	5.466108
O	5.380327	3.074167	1.141874
O	5.380327	5.402739	7.335031
O	7.249250	3.010797	3.010797
Zn	2.106126	2.132327	10.609232
Zn	4.238453	0.000000	12.715358
Zn	2.106126	6.344578	14.821484
Zn	4.238453	4.238453	8.476905
Zn	6.370780	2.132327	14.821484
Zn	0.000000	0.000000	8.476905
Zn	6.370780	6.344578	10.609232
Ga	1.056584	7.421540	11.658774
Ga	3.181981	1.056472	15.897339
Ga	3.183087	3.181869	13.771942
Ga	1.056584	1.055365	13.771942
Ga	1.056584	3.181869	15.898445
Ga	3.183087	5.295036	11.658774
Ga	3.181981	7.420434	9.533377
Ga	1.056584	5.295036	9.532271
Ga	5.294924	7.420434	15.897339
Ga	7.420321	1.055365	11.658774
Ga	7.420321	3.181869	9.532271
Ga	5.294924	1.056472	9.533377
Ga	5.293818	3.181869	11.658774
Ga	7.420321	5.295036	15.898445
Ga	7.420321	7.421540	13.771942
Ga	5.293818	5.295036	13.771942
O	3.275238	0.963214	9.440119
O	5.191090	3.275515	13.678295
O	5.201667	0.963214	15.990596
O	3.285816	3.275515	11.752421
O	3.096579	1.141874	13.879644
O	1.164286	7.335031	9.618779
O	1.164286	1.141874	15.811937
O	3.096579	7.335031	11.551072
O	3.285816	5.201390	13.678295
O	5.201667	7.513691	9.440119
O	5.191090	5.201390	11.752421
O	3.275238	7.513691	15.990596
O	3.096579	5.402739	9.618779
O	1.227655	3.010797	13.943013
O	1.227655	5.466108	11.487703
O	3.096579	3.074167	15.811937
O	7.513968	0.952637	13.678295
O	0.962937	3.275515	9.429542
O	0.962937	0.952637	11.752421
O	7.513968	3.275515	16.001174
O	7.312619	1.141874	9.618779
O	5.380327	7.335031	13.879644
O	5.380327	1.141874	11.551072
O	7.312619	7.335031	15.811937
O	7.513968	5.201390	9.429542
O	0.962937	7.524268	13.678295
O	0.962937	5.201390	16.001174
O	7.513968	7.524268	11.752421
O	7.249250	5.466108	13.943013
O	5.380327	3.074167	9.618779
O	5.380327	5.402739	15.811937
O	7.249250	3.010797	11.487703
Zn	2.106126	10.609232	2.132327
Zn	4.238453	8.476905	4.238453
Zn	2.106126	14.821484	6.344578
Zn	4.238453	12.715358	0.000000
Zn	6.370780	10.609232	6.344578
Zn	0.000000	8.476905	0.000000
Zn	6.370780	14.821484	2.132327
Ga	1.056584	15.898445	3.181869
Ga	3.181981	9.533377	7.420434
Ga	3.183087	11.658774	5.295036
Ga	1.056584	9.532271	5.295036
Ga	1.056584	11.658774	7.421540
Ga	3.183087	13.771942	3.181869
Ga	3.181981	15.897339	1.056472
Ga	1.056584	13.771942	1.055365
Ga	5.294924	15.897339	7.420434
Ga	7.420321	9.532271	3.181869
Ga	7.420321	11.658774	1.055365
Ga	5.294924	9.533377	1.056472
Ga	5.293818	11.658774	3.181869
Ga	7.420321	13.771942	7.421540
Ga	7.420321	15.898445	5.295036
Ga	5.293818	13.771942	5.295036
O	3.275238	9.440119	0.963214
O	5.191090	11.752421	5.201390
O	5.201667	9.440119	7.513691
O	3.285816	11.752421	3.275515
O	3.096579	9.618779	5.402739
O	1.164286	15.811937	1.141874
O	1.164286	9.618779	7.335031
O	3.096579	15.811937	3.074167
O	3.285816	13.678295	5.201390
O	5.201667	15.990596	0.963214
O	5.191090	13.678295	3.275515
O	3.275238	15.990596	7.513691
O	3.096579	13.879644	1.141874
O	1.227655	11.487703	5.466108
O	1.227655	13.943013	3.010797
O	3.096579	11.551072	7.335031
O	7.513968	9.429542	5.201390
O	0.962937	11.752421	0.952637
O	0.962937	9.429542	3.275515
O	7.513968	11.752421	7.524268
O	7.312619	9.618779	1.141874
O	5.380327	15.811937	5.402739
O	5.380327	9.618779	3.074167
O	7.312619	15.811937	7.335031
O	7.513968	13.678295	0.952637
O	0.962937	16.001174	5.201390
O	0.962937	13.678295	7.524268
O	7.513968	16.001174	3.275515
O	7.249250	13.943013	5.466108
O	5.380327	11.551072	1.141874
O	5.380327	13.879644	7.335031
O	7.249250	11.487703	3.010797
Zn	2.106126	10.609232	10.609232
Zn	4.238453	8.476905	12.715358
Zn	2.106126	14.821484	14.821484
Zn	4.238453	12.715358	8.476905
Zn	6.370780	10.609232	14.821484
Zn	0.000000	8.476905	8.476905
Zn	6.370780	14.821484	10.609232
Ga	1.056584	15.898445	11.658774
Ga	3.181981	9.533377	15.897339
Ga	3.183087	11.658774	13.771942
Ga	1.056584	9.532271	13.771942
Ga	1.056584	11.658774	15.898445
Ga	3.183087	13.771942	11.658774
Ga	3.181981	15.897339	9.533377
Ga	1.056584	13.771942	9.532271
Ga	5.294924	15.897339	15.897339
Ga	7.420321	9.532271	11.658774
Ga	7.420321	11.658774	9.532271
Ga	5.294924	9.533377	9.533377
Ga	5.293818	11.658774	11.658774
Ga	7.420321	13.771942	15.898445
Ga	7.420321	15.898445	13.771942
Ga	5.293818	13.771942	13.771942
O	3.275238	9.440119	9.440119
O	5.191090	11.752421	13.678295
O	5.201667	9.440119	15.990596
O	3.285816	11.752421	11.752421
O	3.096579	9.618779	13.879644
O	1.164286	15.811937	9.618779
O	1.164286	9.618779	15.811937
O	3.096579	15.811937	11.551072
O	3.285816	13.678295	13.678295
O	5.201667	15.990596	9.440119
O	5.191090	13.678295	11.752421
O	3.275238	15.990596	15.990596
O	3.096579	13.879644	9.618779
O	1.227655	11.487703	13.943013
O	1.227655	13.943013	11.487703
O	3.096579	11.551072	15.811937
O	7.513968	9.429542	13.678295
O	0.962937	11.752421	9.429542
O	0.962937	9.429542	11.752421
O	7.513968	11.752421	16.001174
O	7.312619	9.618779	9.618779
O	5.380327	15.811937	13.879644
O	5.380327	9.618779	11.551072
O	7.312619	15.811937	15.811937
O	7.513968	13.678295	9.429542
O	0.962937	16.001174	13.678295
O	0.962937	13.678295	16.001174
O	7.513968	16.001174	11.752421
O	7.249250	13.943013	13.943013
O	5.380327	11.551072	9.618779
O	5.380327	13.879644	15.811937
O	7.249250	11.487703	11.487703
Zn	10.583031	2.132327	2.132327
Zn	12.715358	0.000000	4.238453
Zn	10.583031	6.344578	6.344578
Zn	12.715358	4.238453	0.000000
Zn	14.847685	2.132327	6.344578
Zn	8.476905	0.000000	0.000000
Zn	14.847685	6.344578	2.132327
Ga	9.533489	7.421540	3.181869
Ga	11.658886	1.056472	7.420434
Ga	11.659992	3.181869	5.295036
Ga	9.533489	1.055365	5.295036
Ga	9.533489	3.181869	7.421540
Ga	11.659992	5.295036	3.181869
Ga	11.658886	7.420434	1.056472
Ga	9.533489	5.295036	1.055365
Ga	13.771830	7.420434	7.420434
Ga	15.897227	1.055365	3.181869
Ga	15.897227	3.181869	1.055365
Ga	13.771830	1.056472	1.056472
Ga	13.770723	3.181869	3.181869
Ga	15.897227	5.295036	7.421540
Ga	15.897227	7.421540	5.295036
Ga	13.770723	5.295036	5.295036
O	11.752144	0.963214	0.963214
O	13.667995	3.275515	5.201390
O	13.678572	0.963214	7.513691
O	11.762721	3.275515	3.275515
O	11.573484	1.141874	5.402739
O	9.641191	7.335031	1.141874
O	9.641191	1.141874	7.335031
O	11.573484	7.335031	3.074167
O	11.762721	5.201390	5.201390
O	13.678572	7.513691	0.963214
O	13.667995	5.201390	3.275515
O	11.752144	7.513691	7.513691
O	11.573484	5.402739	1.141874
O	9.704561	3.010797	5.466108
O	9.704561	5.466108	3.010797
O	11.573484	3.074167	7.335031
O	15.990873	0.952637	5.201390
O	9.439842	3.275515	0.952637
O	9.439842	0.952637	3.275515
O	15.990873	3.275515	7.524268
O	15.789525	1.141874	1.141874
O	13.857232	7.335031	5.402739
O	13.857232	1.141874	3.074167
O	15.789525	7.335031	7.335031
O	15.990873	5.201390	0.952637
O	9.439842	7.524268	5.201390
O	9.439842	5.201390	7.524268
O	15.990873	7.524268	3.275515
O	15.726155	5.466108	5.466108
O	13.857232	3.074167	1.141874
O	13.857232	5.402739	7.335031
O	15.726155	3.010797	3.010797
Zn	10.583031	2.132327	10.609232
Zn	12.715358	0.000000	12.715358
Zn	10.583031	6.344578	14.821484
Zn	12.715358	4.238453	8.476905
Zn	14.847685	2.132327	14.821484
Zn	8.476905	0.000000	8.476905
Zn	14.847685	6.344578	10.609232
Ga	9.533489	7.421540	11.658774
Ga	11.658886	1.056472	15.897339
Ga	11.659992	3.181869	13.771942
Ga	9.533489	1.055365	13.771942
Ga	9.533489	3.181869	15.898445
Ga	11.659992	5.295036	11.658774
Ga	11.658886	7.420434	9.533377
Ga	9.533489	5.295036	9.532271
Ga	13.771830	7.420434	15.897339
Ga	15.897227	1.055365	11.658774
Ga	15.897227	3.181869	9.532271
Ga	13.771830	1.056472	9.533377
Ga	13.770723	3.181869	11.658774
Ga	15.897227	5.295036	15.898445
Ga	15.897227	7.421540	13.771942
Ga	13.770723	5.295036	13.771942
O	11.752144	0.963214	9.440119
O	13.667995	3.275515	13.678295
O	13.678572	0.963214	15.990596
O	11.762721	3.275515	11.752421
O	11.573484	1.141874	13.879644
O	9.641191	7.335031	9.618779
O	9.641191	1.141874	15.811937
O	11.573484	7.335031	11.551072
O	11.762721	5.201390	13.678295
O	13.678572	7.513691	9.440119
O	13.667995	5.201390	11.752421
O	11.752144	7.513691	15.990596
O	11.573484	5.402739	9.618779
O	9.704561	3.010797	13.943013
O	9.704561	5.466108	11.487703
O	11.573484	3.074167	15.811937
O	15.990873	0.952637	13.678295
O	9.439842	3.275515	9.429542
O	9.439842	0.952637	11.752421
O	15.990873	3.275515	16.001174
O	15.789525	1.141874	9.618779
O	13.857232	7.335031	13.879644
O	13.857232	1.141874	11.551072
O	15.789525	7.335031	15.811937
O	15.990873	5.201390	9.429542
O	9.439842	7.524268	13.678295
O	9.439842	5.201390	16.001174
O	15.990873	7.524268	11.752421
O	15.726155	5.466108	13.943013
O	13.857232	3.074167	9.618779
O	13.857232	5.402739	15.811937
O	15.726155	3.010797	11.487703
Zn	10.583031	10.609232	2.132327
Zn	12.715358	8.476905	4.238453
Zn	10.583031	14.821484	6.344578
Zn	12.715358	12.715358	0.000000
Zn	14.847685	10.609232	6.344578
Zn	8.476905	8.476905	0.000000
Zn	14.847685	14.821484	2.132327
Ga	9.533489	15.898445	3.181869
Ga	11.658886	9.533377	7.420434
Ga	11.659992	11.658774	5.295036
Ga	9.533489	9.532271	5.295036
Ga	9.533489	11.658774	7.421540
Ga	11.659992	13.771942	3.181869
Ga	11.658886	15.897339	1.056472
Ga	9.533489	13.771942	1.055365
Ga	13.771830	15.897339	7.420434
Ga	15.897227	9.532271	3.181869
Ga	15.897227	11.658774	1.055365
Ga	13.771830	9.533377	1.056472
Ga	13.770723	11.658774	3.181869
Ga	15.897227	13.771942	7.421540
Ga	15.897227	15.898445	5.295036
Ga	13.770723	13.771942	5.295036
O	11.752144	9.440119	0.963214
O	13.667995	11.752421	5.201390
O	13.678572	9.440119	7.513691
O	11.762721	11.752421	3.275515
O	11.573484	9.618779	5.402739
O	9.641191	15.811937	1.141874
O	9.641191	9.618779	7.335031
O	11.573484	15.811937	3.074167
O	11.762721	13.678295	5.201390
O	13.678572	15.990596	0.963214
O	13.667995	13.678295	3.275515
O	11.752144	15.990596	7.513691
O	11.573484	13.879644	1.141874
O	9.704561	11.487703	5.466108
O	9.704561	13.943013	3.010797
O	11.573484	11.551072	7.335031
O	15.990873	9.429542	5.201390
O	9.439842	11.752421	0.952637
O	9.439842	9.429542	3.275515
O	15.990873	11.752421	7.524268
O	15.789525	9.618779	1.141874
O	13.857232	15.811937	5.402739
O	13.857232	9.618779	3.074167
O	15.789525	15.811937	7.335031
O	15.990873	13.678295	0.952637
O	9.439842	16.001174	5.201390
O	9.439842	13.678295	7.524268
O	15.990873	16.001174	3.275515
O	15.726155	13.943013	5.466108
O	13.857232	11.551072	1.141874
O	13.857232	13.879644	7.335031
O	15.726155	11.487703	3.010797
Zn	10.583031	10.609232	10.609232
Zn	12.715358	8.476905	12.715358
Zn	10.583031	14.821484	14.821484
Zn	12.715358	12.715358	8.476905
Zn	14.847685	10.609232	14.821484
Zn	8.476905	8.476905	8.476905
Zn	14.847685	14.821484	10.609232
Ga	9.533489	15.898445	11.658774
Ga	11.658886	9.533377	15.897339
Ga	11.659992	11.658774	13.771942
Ga	9.533489	9.532271	13.771942
Ga	9.533489	11.658774	15.898445
Ga	11.659992	13.771942	11.658774
Ga	11.658886	15.897339	9.533377
Ga	9.533489	13.771942	9.532271
Ga	13.771830	15.897339	15.897339
Ga	15.897227	9.532271	11.658774
Ga	15.897227	11.658774	9.532271
Ga	13.771830	9.533377	9.533377
Ga	13.770723	11.658774	11.658774
Ga	15.897227	13.771942	15.898445
Ga	15.897227	15.898445	13.771942
Ga	13.770723	13.771942	13.771942
O	11.752144	9.440119	9.440119
O	13.667995	11.752421	13.678295
O	13.678572	9.440119	15.990596
O	11.762721	11.752421	11.752421
O	11.573484	9.618779	13.879644
O	9.641191	15.811937	9.618779
O	9.641191	9.618779	15.811937
O	11.573484	15.811937	11.551072
O	11.762721	13.678295	13.678295
O	13.678572	15.990596	9.440119
O	13.667995	13.678295	11.752421
O	11.752144	15.990596	15.990596
O	11.573484	13.879644	9.618779
O	9.704561	11.487703	13.943013
O	9.704561	13.943013	11.487703
O	11.573484	11.551072	15.811937
O	15.990873	9.429542	13.678295
O	9.439842	11.752421	9.429542
O	9.439842	9.429542	11.752421
O	15.990873	11.752421	16.001174
O	15.789525	9.618779	9.618779
O	13.857232	15.811937	13.879644
O	13.857232	9.618779	11.551072
O	15.789525	15.811937	15.811937
O	15.990873	13.678295	9.429542
O	9.439842	16.001174	13.678295
O	9.439842	13.678295	16.001174
O	15.990873	16.001174	11.752421
O	15.726155	13.943013	13.943013
O	13.857232	11.551072	9.618779
O	13.857232	13.879644	15.811937
O	15.726155	11.487703	11.487703
