112

Ba	0.000000	0.000000	0.000000
Ba	2.574045	-2.574662	-2.574662
Nd	-1.287023	-1.287331	-3.861993
Nd	3.861058	1.287331	-1.287331
Nd	1.287023	1.287331	-3.861993
Nd	6.435103	-1.287331	-1.287331
O	4.049112	-1.098641	-1.098641
O	-1.098969	1.098641	-4.050693
O	1.098969	-1.098641	-4.050693
O	1.475076	1.476021	-1.476021
O	6.247049	1.098641	-1.098641
O	1.475076	3.673303	-3.673303
O	3.673014	3.673303	-1.476021
O	3.673014	1.476021	-3.673303
Ba	5.148082	5.149327	0.000000
Ba	7.722127	2.574665	-2.574662
Nd	3.861060	3.861996	-3.861993
Nd	9.009140	6.436658	-1.287331
Nd	6.435105	6.436658	-3.861993
Nd	11.583185	3.861996	-1.287331
O	9.197194	4.050687	-1.098641
O	4.049113	6.247968	-4.050693
O	6.247051	4.050687	-4.050693
O	6.623159	6.625349	-1.476021
O	11.395131	6.247968	-1.098641
O	6.623159	8.822630	-3.673303
O	8.821096	8.822630	-1.476021
O	8.821096	6.625349	-3.673303
Ba	-5.148082	0.000000	-5.149327
Ba	-2.574037	-2.574662	-7.723989
Nd	-6.435105	-1.287331	-9.011321
Nd	-1.287024	1.287331	-6.436658
Nd	-3.861060	1.287331	-9.011321
Nd	1.287021	-1.287331	-6.436658
O	-1.098970	-1.098641	-6.247968
O	-6.247051	1.098641	-9.200021
O	-4.049113	-1.098641	-9.200021
O	-3.673006	1.476021	-6.625349
O	1.098967	1.098641	-6.247968
O	-3.673006	3.673303	-8.822630
O	-1.475068	3.673303	-6.625349
O	-1.475068	1.476021	-8.822630
Ba	0.000000	5.149327	-5.149327
Ba	2.574045	2.574665	-7.723989
Nd	-1.287023	3.861996	-9.011321
Nd	3.861058	6.436658	-6.436658
Nd	1.287023	6.436658	-9.011321
Nd	6.435103	3.861996	-6.436658
O	4.049112	4.050687	-6.247968
O	-1.098969	6.247968	-9.200021
O	1.098969	4.050687	-9.200021
O	1.475076	6.625349	-6.625349
O	6.247049	6.247968	-6.247968
O	1.475076	8.822630	-8.822630
O	3.673014	8.822630	-6.625349
O	3.673014	6.625349	-8.822630
Ba	5.148082	-5.149327	0.000000
Ba	7.722127	-7.723989	-2.574662
Nd	3.861060	-6.436658	-3.861993
Nd	9.009140	-3.861996	-1.287331
Nd	6.435105	-3.861996	-3.861993
Nd	11.583185	-6.436658	-1.287331
O	9.197194	-6.247968	-1.098641
O	4.049113	-4.050687	-4.050693
O	6.247051	-6.247968	-4.050693
O	6.623159	-3.673306	-1.476021
O	11.395131	-4.050687	-1.098641
O	6.623159	-1.476025	-3.673303
O	8.821096	-1.476025	-1.476021
O	8.821096	-3.673306	-3.673303
Ba	10.296164	0.000000	0.000000
Ba	12.870210	-2.574662	-2.574662
Nd	9.009142	-1.287331	-3.861993
Nd	14.157222	1.287331	-1.287331
Nd	11.583187	1.287331	-3.861993
Nd	16.731267	-1.287331	-1.287331
O	14.345276	-1.098641	-1.098641
O	9.197196	1.098641	-4.050693
O	11.395133	-1.098641	-4.050693
O	11.771241	1.476021	-1.476021
O	16.543214	1.098641	-1.098641
O	11.771241	3.673303	-3.673303
O	13.969178	3.673303	-1.476021
O	13.969178	1.476021	-3.673303
Ba	0.000000	-5.149327	-5.149327
Ba	2.574045	-7.723989	-7.723989
Nd	-1.287023	-6.436658	-9.011321
Nd	3.861058	-3.861996	-6.436658
Nd	1.287023	-3.861996	-9.011321
Nd	6.435103	-6.436658	-6.436658
O	4.049112	-6.247968	-6.247968
O	-1.098969	-4.050687	-9.200021
O	1.098969	-6.247968	-9.200021
O	1.475076	-3.673306	-6.625349
O	6.247049	-4.050687	-6.247968
O	1.475076	-1.476025	-8.822630
O	3.673014	-1.476025	-6.625349
O	3.673014	-3.673306	-8.822630
Ba	5.148082	0.000000	-5.149327
Ba	7.722127	-2.574662	-7.723989
Nd	3.861060	-1.287331	-9.011321
Nd	9.009140	1.287331	-6.436658
Nd	6.435105	1.287331	-9.011321
Nd	11.583185	-1.287331	-6.436658
O	9.197194	-1.098641	-6.247968
O	4.049113	1.098641	-9.200021
O	6.247051	-1.098641	-9.200021
O	6.623159	1.476021	-6.625349
O	11.395131	1.098641	-6.247968
O	6.623159	3.673303	-8.822630
O	8.821096	3.673303	-6.625349
O	8.821096	1.476021	-8.822630
