40

Br	2.030416	2.030416	2.030416
Ir	0.000000	0.000000	0.000000
O	0.000000	2.030416	2.030416
O	2.030416	0.000000	2.030416
O	2.030416	2.030416	0.000000
Br	2.030416	2.030416	6.091249
Ir	0.000000	0.000000	4.060833
O	0.000000	2.030416	6.091249
O	2.030416	0.000000	6.091249
O	2.030416	2.030416	4.060833
Br	2.030416	6.091249	2.030416
Ir	0.000000	4.060833	0.000000
O	0.000000	6.091249	2.030416
O	2.030416	4.060833	2.030416
O	2.030416	6.091249	0.000000
Br	2.030416	6.091249	6.091249
Ir	0.000000	4.060833	4.060833
O	0.000000	6.091249	6.091249
O	2.030416	4.060833	6.091249
O	2.030416	6.091249	4.060833
Br	6.091249	2.030416	2.030416
Ir	4.060833	0.000000	0.000000
O	4.060833	2.030416	2.030416
O	6.091249	0.000000	2.030416
O	6.091249	2.030416	0.000000
Br	6.091249	2.030416	6.091249
Ir	4.060833	0.000000	4.060833
O	4.060833	2.030416	6.091249
O	6.091249	0.000000	6.091249
O	6.091249	2.030416	4.060833
Br	6.091249	6.091249	2.030416
Ir	4.060833	4.060833	0.000000
O	4.060833	6.091249	2.030416
O	6.091249	4.060833	2.030416
O	6.091249	6.091249	0.000000
Br	6.091249	6.091249	6.091249
Ir	4.060833	4.060833	4.060833
O	4.060833	6.091249	6.091249
O	6.091249	4.060833	6.091249
O	6.091249	6.091249	4.060833
