40

Bi	2.215435	2.215435	2.215435
Nd	0.000000	0.000000	0.000000
O	2.215435	2.215435	0.000000
O	2.215435	0.000000	2.215435
O	0.000000	2.215435	2.215435
Bi	2.215435	2.215435	6.646306
Nd	0.000000	0.000000	4.430871
O	2.215435	2.215435	4.430871
O	2.215435	0.000000	6.646306
O	0.000000	2.215435	6.646306
Bi	2.215435	6.646306	2.215435
Nd	0.000000	4.430871	0.000000
O	2.215435	6.646306	0.000000
O	2.215435	4.430871	2.215435
O	0.000000	6.646306	2.215435
Bi	2.215435	6.646306	6.646306
Nd	0.000000	4.430871	4.430871
O	2.215435	6.646306	4.430871
O	2.215435	4.430871	6.646306
O	0.000000	6.646306	6.646306
Bi	6.646306	2.215435	2.215435
Nd	4.430871	0.000000	0.000000
O	6.646306	2.215435	0.000000
O	6.646306	0.000000	2.215435
O	4.430871	2.215435	2.215435
Bi	6.646306	2.215435	6.646306
Nd	4.430871	0.000000	4.430871
O	6.646306	2.215435	4.430871
O	6.646306	0.000000	6.646306
O	4.430871	2.215435	6.646306
Bi	6.646306	6.646306	2.215435
Nd	4.430871	4.430871	0.000000
O	6.646306	6.646306	0.000000
O	6.646306	4.430871	2.215435
O	4.430871	6.646306	2.215435
Bi	6.646306	6.646306	6.646306
Nd	4.430871	4.430871	4.430871
O	6.646306	6.646306	4.430871
O	6.646306	4.430871	6.646306
O	4.430871	6.646306	6.646306
