40

F	0.000000	0.000000	0.000000
O	0.000000	1.943183	1.943183
O	1.943183	0.000000	1.943183
O	1.943183	1.943183	0.000000
Pd	1.943183	1.943183	1.943183
F	0.000000	0.000000	3.886366
O	0.000000	1.943183	5.829549
O	1.943183	0.000000	5.829549
O	1.943183	1.943183	3.886366
Pd	1.943183	1.943183	5.829549
F	0.000000	3.886366	0.000000
O	0.000000	5.829549	1.943183
O	1.943183	3.886366	1.943183
O	1.943183	5.829549	0.000000
Pd	1.943183	5.829549	1.943183
F	0.000000	3.886366	3.886366
O	0.000000	5.829549	5.829549
O	1.943183	3.886366	5.829549
O	1.943183	5.829549	3.886366
Pd	1.943183	5.829549	5.829549
F	3.886366	0.000000	0.000000
O	3.886366	1.943183	1.943183
O	5.829549	0.000000	1.943183
O	5.829549	1.943183	0.000000
Pd	5.829549	1.943183	1.943183
F	3.886366	0.000000	3.886366
O	3.886366	1.943183	5.829549
O	5.829549	0.000000	5.829549
O	5.829549	1.943183	3.886366
Pd	5.829549	1.943183	5.829549
F	3.886366	3.886366	0.000000
O	3.886366	5.829549	1.943183
O	5.829549	3.886366	1.943183
O	5.829549	5.829549	0.000000
Pd	5.829549	5.829549	1.943183
F	3.886366	3.886366	3.886366
O	3.886366	5.829549	5.829549
O	5.829549	3.886366	5.829549
O	5.829549	5.829549	3.886366
Pd	5.829549	5.829549	5.829549
