40

Ir	2.000979	2.000979	2.000979
O	2.000979	2.000979	0.000000
O	0.000000	2.000979	2.000979
O	2.000979	0.000000	2.000979
U	0.000000	0.000000	0.000000
Ir	2.000979	2.000979	6.002938
O	2.000979	2.000979	4.001958
O	0.000000	2.000979	6.002938
O	2.000979	0.000000	6.002938
U	0.000000	0.000000	4.001958
Ir	2.000979	6.002938	2.000979
O	2.000979	6.002938	0.000000
O	0.000000	6.002938	2.000979
O	2.000979	4.001958	2.000979
U	0.000000	4.001958	0.000000
Ir	2.000979	6.002938	6.002938
O	2.000979	6.002938	4.001958
O	0.000000	6.002938	6.002938
O	2.000979	4.001958	6.002938
U	0.000000	4.001958	4.001958
Ir	6.002938	2.000979	2.000979
O	6.002938	2.000979	0.000000
O	4.001958	2.000979	2.000979
O	6.002938	0.000000	2.000979
U	4.001958	0.000000	0.000000
Ir	6.002938	2.000979	6.002938
O	6.002938	2.000979	4.001958
O	4.001958	2.000979	6.002938
O	6.002938	0.000000	6.002938
U	4.001958	0.000000	4.001958
Ir	6.002938	6.002938	2.000979
O	6.002938	6.002938	0.000000
O	4.001958	6.002938	2.000979
O	6.002938	4.001958	2.000979
U	4.001958	4.001958	0.000000
Ir	6.002938	6.002938	6.002938
O	6.002938	6.002938	4.001958
O	4.001958	6.002938	6.002938
O	6.002938	4.001958	6.002938
U	4.001958	4.001958	4.001958
