40

Ir	1.957620	1.957620	1.957620
O	1.957620	1.957620	0.000000
O	0.000000	1.957620	1.957620
O	1.957620	0.000000	1.957620
W_pv	0.000000	0.000000	0.000000
Ir	1.957620	1.957620	5.872844
O	1.957620	1.957620	3.915224
O	0.000000	1.957620	5.872844
O	1.957620	0.000000	5.872844
W_pv	0.000000	0.000000	3.915224
Ir	1.957620	5.872844	1.957620
O	1.957620	5.872844	0.000000
O	0.000000	5.872844	1.957620
O	1.957620	3.915224	1.957620
W_pv	0.000000	3.915224	0.000000
Ir	1.957620	5.872844	5.872844
O	1.957620	5.872844	3.915224
O	0.000000	5.872844	5.872844
O	1.957620	3.915224	5.872844
W_pv	0.000000	3.915224	3.915224
Ir	5.872844	1.957620	1.957620
O	5.872844	1.957620	0.000000
O	3.915224	1.957620	1.957620
O	5.872844	0.000000	1.957620
W_pv	3.915224	0.000000	0.000000
Ir	5.872844	1.957620	5.872844
O	5.872844	1.957620	3.915224
O	3.915224	1.957620	5.872844
O	5.872844	0.000000	5.872844
W_pv	3.915224	0.000000	3.915224
Ir	5.872844	5.872844	1.957620
O	5.872844	5.872844	0.000000
O	3.915224	5.872844	1.957620
O	5.872844	3.915224	1.957620
W_pv	3.915224	3.915224	0.000000
Ir	5.872844	5.872844	5.872844
O	5.872844	5.872844	3.915224
O	3.915224	5.872844	5.872844
O	5.872844	3.915224	5.872844
W_pv	3.915224	3.915224	3.915224
