112

Er	0.000000	0.000000	0.000000
Er	2.204203	-2.204554	-2.204554
Li	-1.102101	-1.102277	-3.306831
Li	3.306304	1.102277	-1.102277
Li	5.510506	-1.102277	-1.102277
Li	1.102101	1.102277	-3.306831
O	3.416186	-0.991623	-0.991623
O	-0.992219	0.991623	-3.417485
O	0.992219	-0.991623	-3.417485
O	1.211984	1.212931	-1.212931
O	5.400624	0.991623	-0.991623
O	1.211984	3.196177	-3.196177
O	3.196421	3.196177	-1.212931
O	3.196421	1.212931	-3.196177
Er	4.408405	4.409108	0.000000
Er	6.612608	2.204554	-2.204554
Li	3.306304	3.306831	-3.306831
Li	7.714709	5.511386	-1.102277
Li	9.918911	3.306831	-1.102277
Li	5.510506	5.511386	-3.306831
O	7.824591	3.417485	-0.991623
O	3.416186	5.400731	-3.417485
O	5.400624	3.417485	-3.417485
O	5.620389	5.622040	-1.212931
O	9.809029	5.400731	-0.991623
O	5.620389	7.605286	-3.196177
O	7.604826	7.605286	-1.212931
O	7.604826	5.622040	-3.196177
Er	-4.408405	0.000000	-4.409108
Er	-2.204203	-2.204554	-6.613663
Li	-5.510506	-1.102277	-7.715940
Li	-1.102101	1.102277	-5.511386
Li	1.102101	-1.102277	-5.511386
Li	-3.306304	1.102277	-7.715940
O	-0.992219	-0.991623	-5.400731
O	-5.400624	0.991623	-7.826594
O	-3.416186	-0.991623	-7.826594
O	-3.196421	1.212931	-5.622040
O	0.992219	0.991623	-5.400731
O	-3.196421	3.196177	-7.605286
O	-1.211984	3.196177	-5.622040
O	-1.211984	1.212931	-7.605286
Er	0.000000	4.409108	-4.409108
Er	2.204203	2.204554	-6.613663
Li	-1.102101	3.306831	-7.715940
Li	3.306304	5.511386	-5.511386
Li	5.510506	3.306831	-5.511386
Li	1.102101	5.511386	-7.715940
O	3.416186	3.417485	-5.400731
O	-0.992219	5.400731	-7.826594
O	0.992219	3.417485	-7.826594
O	1.211984	5.622040	-5.622040
O	5.400624	5.400731	-5.400731
O	1.211984	7.605286	-7.605286
O	3.196421	7.605286	-5.622040
O	3.196421	5.622040	-7.605286
Er	4.408405	-4.409108	0.000000
Er	6.612608	-6.613663	-2.204554
Li	3.306304	-5.511386	-3.306831
Li	7.714709	-3.306831	-1.102277
Li	9.918911	-5.511386	-1.102277
Li	5.510506	-3.306831	-3.306831
O	7.824591	-5.400731	-0.991623
O	3.416186	-3.417485	-3.417485
O	5.400624	-5.400731	-3.417485
O	5.620389	-3.196177	-1.212931
O	9.809029	-3.417485	-0.991623
O	5.620389	-1.212931	-3.196177
O	7.604826	-1.212931	-1.212931
O	7.604826	-3.196177	-3.196177
Er	8.816810	0.000000	0.000000
Er	11.021013	-2.204554	-2.204554
Li	7.714709	-1.102277	-3.306831
Li	12.123114	1.102277	-1.102277
Li	14.327316	-1.102277	-1.102277
Li	9.918911	1.102277	-3.306831
O	12.232996	-0.991623	-0.991623
O	7.824591	0.991623	-3.417485
O	9.809029	-0.991623	-3.417485
O	10.028794	1.212931	-1.212931
O	14.217434	0.991623	-0.991623
O	10.028794	3.196177	-3.196177
O	12.013231	3.196177	-1.212931
O	12.013231	1.212931	-3.196177
Er	0.000000	-4.409108	-4.409108
Er	2.204203	-6.613663	-6.613663
Li	-1.102101	-5.511386	-7.715940
Li	3.306304	-3.306831	-5.511386
Li	5.510506	-5.511386	-5.511386
Li	1.102101	-3.306831	-7.715940
O	3.416186	-5.400731	-5.400731
O	-0.992219	-3.417485	-7.826594
O	0.992219	-5.400731	-7.826594
O	1.211984	-3.196177	-5.622040
O	5.400624	-3.417485	-5.400731
O	1.211984	-1.212931	-7.605286
O	3.196421	-1.212931	-5.622040
O	3.196421	-3.196177	-7.605286
Er	4.408405	0.000000	-4.409108
Er	6.612608	-2.204554	-6.613663
Li	3.306304	-1.102277	-7.715940
Li	7.714709	1.102277	-5.511386
Li	9.918911	-1.102277	-5.511386
Li	5.510506	1.102277	-7.715940
O	7.824591	-0.991623	-5.400731
O	3.416186	0.991623	-7.826594
O	5.400624	-0.991623	-7.826594
O	5.620389	1.212931	-5.622040
O	9.809029	0.991623	-5.400731
O	5.620389	3.196177	-7.605286
O	7.604826	3.196177	-5.622040
O	7.604826	1.212931	-7.605286
