40

Cr	1.925440	1.925440	1.925440
O	1.925440	1.925440	0.000000
O	0.000000	1.925440	1.925440
O	1.925440	0.000000	1.925440
Pm_3	0.000000	0.000000	0.000000
Cr	1.925440	1.925440	5.776314
O	1.925440	1.925440	3.850874
O	0.000000	1.925440	5.776314
O	1.925440	0.000000	5.776314
Pm_3	0.000000	0.000000	3.850874
Cr	1.925440	5.776314	1.925440
O	1.925440	5.776314	0.000000
O	0.000000	5.776314	1.925440
O	1.925440	3.850874	1.925440
Pm_3	0.000000	3.850874	0.000000
Cr	1.925440	5.776314	5.776314
O	1.925440	5.776314	3.850874
O	0.000000	5.776314	5.776314
O	1.925440	3.850874	5.776314
Pm_3	0.000000	3.850874	3.850874
Cr	5.776314	1.925440	1.925440
O	5.776314	1.925440	0.000000
O	3.850874	1.925440	1.925440
O	5.776314	0.000000	1.925440
Pm_3	3.850874	0.000000	0.000000
Cr	5.776314	1.925440	5.776314
O	5.776314	1.925440	3.850874
O	3.850874	1.925440	5.776314
O	5.776314	0.000000	5.776314
Pm_3	3.850874	0.000000	3.850874
Cr	5.776314	5.776314	1.925440
O	5.776314	5.776314	0.000000
O	3.850874	5.776314	1.925440
O	5.776314	3.850874	1.925440
Pm_3	3.850874	3.850874	0.000000
Cr	5.776314	5.776314	5.776314
O	5.776314	5.776314	3.850874
O	3.850874	5.776314	5.776314
O	5.776314	3.850874	5.776314
Pm_3	3.850874	3.850874	3.850874
