40

K	0.000000	0.000000	0.000000
O	2.145490	2.145490	0.000000
O	2.145490	0.000000	2.145490
O	0.000000	2.145490	2.145490
Pb	2.145490	2.145490	2.145490
K	0.000000	0.000000	4.290982
O	2.145490	2.145490	4.290982
O	2.145490	0.000000	6.436472
O	0.000000	2.145490	6.436472
Pb	2.145490	2.145490	6.436472
K	0.000000	4.290982	0.000000
O	2.145490	6.436472	0.000000
O	2.145490	4.290982	2.145490
O	0.000000	6.436472	2.145490
Pb	2.145490	6.436472	2.145490
K	0.000000	4.290982	4.290982
O	2.145490	6.436472	4.290982
O	2.145490	4.290982	6.436472
O	0.000000	6.436472	6.436472
Pb	2.145490	6.436472	6.436472
K	4.290982	0.000000	0.000000
O	6.436472	2.145490	0.000000
O	6.436472	0.000000	2.145490
O	4.290982	2.145490	2.145490
Pb	6.436472	2.145490	2.145490
K	4.290982	0.000000	4.290982
O	6.436472	2.145490	4.290982
O	6.436472	0.000000	6.436472
O	4.290982	2.145490	6.436472
Pb	6.436472	2.145490	6.436472
K	4.290982	4.290982	0.000000
O	6.436472	6.436472	0.000000
O	6.436472	4.290982	2.145490
O	4.290982	6.436472	2.145490
Pb	6.436472	6.436472	2.145490
K	4.290982	4.290982	4.290982
O	6.436472	6.436472	4.290982
O	6.436472	4.290982	6.436472
O	4.290982	6.436472	6.436472
Pb	6.436472	6.436472	6.436472
