40

K	2.166958	2.166958	2.166958
O	2.166958	2.166958	0.000000
O	2.166958	0.000000	2.166958
O	0.000000	2.166958	2.166958
Pb	0.000000	0.000000	0.000000
K	2.166958	2.166958	6.500875
O	2.166958	2.166958	4.333917
O	2.166958	0.000000	6.500875
O	0.000000	2.166958	6.500875
Pb	0.000000	0.000000	4.333917
K	2.166958	6.500875	2.166958
O	2.166958	6.500875	0.000000
O	2.166958	4.333917	2.166958
O	0.000000	6.500875	2.166958
Pb	0.000000	4.333917	0.000000
K	2.166958	6.500875	6.500875
O	2.166958	6.500875	4.333917
O	2.166958	4.333917	6.500875
O	0.000000	6.500875	6.500875
Pb	0.000000	4.333917	4.333917
K	6.500875	2.166958	2.166958
O	6.500875	2.166958	0.000000
O	6.500875	0.000000	2.166958
O	4.333917	2.166958	2.166958
Pb	4.333917	0.000000	0.000000
K	6.500875	2.166958	6.500875
O	6.500875	2.166958	4.333917
O	6.500875	0.000000	6.500875
O	4.333917	2.166958	6.500875
Pb	4.333917	0.000000	4.333917
K	6.500875	6.500875	2.166958
O	6.500875	6.500875	0.000000
O	6.500875	4.333917	2.166958
O	4.333917	6.500875	2.166958
Pb	4.333917	4.333917	0.000000
K	6.500875	6.500875	6.500875
O	6.500875	6.500875	4.333917
O	6.500875	4.333917	6.500875
O	4.333917	6.500875	6.500875
Pb	4.333917	4.333917	4.333917
