40

Be	0.000000	0.000000	0.000000
O	0.000000	1.746353	1.746353
O	1.746353	0.000000	1.746353
O	1.746353	1.746353	0.000000
P	1.746353	1.746353	1.746353
Be	0.000000	0.000000	3.492706
O	0.000000	1.746353	5.239059
O	1.746353	0.000000	5.239059
O	1.746353	1.746353	3.492706
P	1.746353	1.746353	5.239059
Be	0.000000	3.492706	0.000000
O	0.000000	5.239059	1.746353
O	1.746353	3.492706	1.746353
O	1.746353	5.239059	0.000000
P	1.746353	5.239059	1.746353
Be	0.000000	3.492706	3.492706
O	0.000000	5.239059	5.239059
O	1.746353	3.492706	5.239059
O	1.746353	5.239059	3.492706
P	1.746353	5.239059	5.239059
Be	3.492706	0.000000	0.000000
O	3.492706	1.746353	1.746353
O	5.239059	0.000000	1.746353
O	5.239059	1.746353	0.000000
P	5.239059	1.746353	1.746353
Be	3.492706	0.000000	3.492706
O	3.492706	1.746353	5.239059
O	5.239059	0.000000	5.239059
O	5.239059	1.746353	3.492706
P	5.239059	1.746353	5.239059
Be	3.492706	3.492706	0.000000
O	3.492706	5.239059	1.746353
O	5.239059	3.492706	1.746353
O	5.239059	5.239059	0.000000
P	5.239059	5.239059	1.746353
Be	3.492706	3.492706	3.492706
O	3.492706	5.239059	5.239059
O	5.239059	3.492706	5.239059
O	5.239059	5.239059	3.492706
P	5.239059	5.239059	5.239059
