112

Ac	0.000000	0.000000	0.000000
Ac	2.803241	-2.803395	-2.803395
O	4.085047	-1.521155	-1.521155
O	-1.521436	1.521155	-4.085635
O	1.521436	-1.521155	-4.085635
O	1.281806	1.282240	-1.282240
O	7.127918	1.521155	-1.521155
O	1.281806	4.324549	-4.324549
O	4.324677	4.324549	-1.282240
O	4.324677	1.282240	-4.324549
Rb	-1.401621	-1.401697	-4.205092
Rb	4.204862	1.401697	-1.401697
Rb	7.008103	-1.401697	-1.401697
Rb	1.401621	1.401697	-4.205092
Ac	5.606483	5.606789	0.000000
Ac	8.409724	2.803395	-2.803395
O	9.691530	4.085635	-1.521155
O	4.085047	7.127944	-4.085635
O	7.127919	4.085635	-4.085635
O	6.888288	6.889029	-1.282240
O	12.734401	7.127944	-1.521155
O	6.888288	9.931339	-4.324549
O	9.931160	9.931339	-1.282240
O	9.931160	6.889029	-4.324549
Rb	4.204862	4.205092	-4.205092
Rb	9.811345	7.008487	-1.401697
Rb	12.614586	4.205092	-1.401697
Rb	7.008103	7.008487	-4.205092
Ac	-5.606483	0.000000	-5.606789
Ac	-2.803241	-2.803395	-8.410184
O	-1.521436	-1.521155	-7.127944
O	-7.127918	1.521155	-9.692424
O	-4.085047	-1.521155	-9.692424
O	-4.324677	1.282240	-6.889029
O	1.521436	1.521155	-7.127944
O	-4.324677	4.324549	-9.931339
O	-1.281806	4.324549	-6.889029
O	-1.281806	1.282240	-9.931339
Rb	-7.008103	-1.401697	-9.811881
Rb	-1.401621	1.401697	-7.008487
Rb	1.401621	-1.401697	-7.008487
Rb	-4.204862	1.401697	-9.811881
Ac	0.000000	5.606789	-5.606789
Ac	2.803241	2.803395	-8.410184
O	4.085047	4.085635	-7.127944
O	-1.521436	7.127944	-9.692424
O	1.521436	4.085635	-9.692424
O	1.281806	6.889029	-6.889029
O	7.127918	7.127944	-7.127944
O	1.281806	9.931339	-9.931339
O	4.324677	9.931339	-6.889029
O	4.324677	6.889029	-9.931339
Rb	-1.401621	4.205092	-9.811881
Rb	4.204862	7.008487	-7.008487
Rb	7.008103	4.205092	-7.008487
Rb	1.401621	7.008487	-9.811881
Ac	5.606483	-5.606789	0.000000
Ac	8.409724	-8.410184	-2.803395
O	9.691530	-7.127944	-1.521155
O	4.085047	-4.085635	-4.085635
O	7.127919	-7.127944	-4.085635
O	6.888288	-4.324549	-1.282240
O	12.734401	-4.085635	-1.521155
O	6.888288	-1.282240	-4.324549
O	9.931160	-1.282240	-1.282240
O	9.931160	-4.324549	-4.324549
Rb	4.204862	-7.008487	-4.205092
Rb	9.811345	-4.205092	-1.401697
Rb	12.614586	-7.008487	-1.401697
Rb	7.008103	-4.205092	-4.205092
Ac	11.212965	0.000000	0.000000
Ac	14.016207	-2.803395	-2.803395
O	15.298012	-1.521155	-1.521155
O	9.691530	1.521155	-4.085635
O	12.734401	-1.521155	-4.085635
O	12.494771	1.282240	-1.282240
O	18.340884	1.521155	-1.521155
O	12.494771	4.324549	-4.324549
O	15.537643	4.324549	-1.282240
O	15.537643	1.282240	-4.324549
Rb	9.811345	-1.401697	-4.205092
Rb	15.417828	1.401697	-1.401697
Rb	18.221069	-1.401697	-1.401697
Rb	12.614586	1.401697	-4.205092
Ac	0.000000	-5.606789	-5.606789
Ac	2.803241	-8.410184	-8.410184
O	4.085047	-7.127944	-7.127944
O	-1.521436	-4.085635	-9.692424
O	1.521436	-7.127944	-9.692424
O	1.281806	-4.324549	-6.889029
O	7.127918	-4.085635	-7.127944
O	1.281806	-1.282240	-9.931339
O	4.324677	-1.282240	-6.889029
O	4.324677	-4.324549	-9.931339
Rb	-1.401621	-7.008487	-9.811881
Rb	4.204862	-4.205092	-7.008487
Rb	7.008103	-7.008487	-7.008487
Rb	1.401621	-4.205092	-9.811881
Ac	5.606483	0.000000	-5.606789
Ac	8.409724	-2.803395	-8.410184
O	9.691530	-1.521155	-7.127944
O	4.085047	1.521155	-9.692424
O	7.127919	-1.521155	-9.692424
O	6.888288	1.282240	-6.889029
O	12.734401	1.521155	-7.127944
O	6.888288	4.324549	-9.931339
O	9.931160	4.324549	-6.889029
O	9.931160	1.282240	-9.931339
Rb	4.204862	-1.401697	-9.811881
Rb	9.811345	1.401697	-7.008487
Rb	12.614586	-1.401697	-7.008487
Rb	7.008103	1.401697	-9.811881
