112

Ir	0.000000	0.000000	0.000000
Ir	2.187141	-2.188052	-2.188052
O	3.379693	-0.994506	-0.994506
O	-0.994589	0.994506	-3.381598
O	0.994589	-0.994506	-3.381598
O	1.192552	1.193546	-1.193546
O	5.368871	0.994506	-0.994506
O	1.192552	3.182559	-3.182559
O	3.181730	3.182559	-1.193546
O	3.181730	1.193546	-3.182559
W	-1.093570	-1.094026	-3.282079
W	3.280711	1.094026	-1.094026
W	5.467852	-1.094026	-1.094026
W	1.093570	1.094026	-3.282079
Ir	4.374282	4.376105	0.000000
Ir	6.561423	2.188052	-2.188052
O	7.753975	3.381598	-0.994506
O	3.379693	5.370611	-3.381598
O	5.368871	3.381598	-3.381598
O	5.566834	5.569651	-1.193546
O	9.743153	5.370611	-0.994506
O	5.566834	7.558664	-3.182559
O	7.556012	7.558664	-1.193546
O	7.556012	5.569651	-3.182559
W	3.280711	3.282079	-3.282079
W	7.654993	5.470131	-1.094026
W	9.842134	3.282079	-1.094026
W	5.467852	5.470131	-3.282079
Ir	-4.374282	0.000000	-4.376105
Ir	-2.187141	-2.188052	-6.564157
O	-0.994589	-0.994506	-5.370611
O	-5.368871	0.994506	-7.757703
O	-3.379693	-0.994506	-7.757703
O	-3.181730	1.193546	-5.569651
O	0.994589	0.994506	-5.370611
O	-3.181730	3.182559	-7.558664
O	-1.192552	3.182559	-5.569651
O	-1.192552	1.193546	-7.558664
W	-5.467852	-1.094026	-7.658183
W	-1.093570	1.094026	-5.470131
W	1.093570	-1.094026	-5.470131
W	-3.280711	1.094026	-7.658183
Ir	0.000000	4.376105	-4.376105
Ir	2.187141	2.188052	-6.564157
O	3.379693	3.381598	-5.370611
O	-0.994589	5.370611	-7.757703
O	0.994589	3.381598	-7.757703
O	1.192552	5.569651	-5.569651
O	5.368871	5.370611	-5.370611
O	1.192552	7.558664	-7.558664
O	3.181730	7.558664	-5.569651
O	3.181730	5.569651	-7.558664
W	-1.093570	3.282079	-7.658183
W	3.280711	5.470131	-5.470131
W	5.467852	3.282079	-5.470131
W	1.093570	5.470131	-7.658183
Ir	4.374282	-4.376105	0.000000
Ir	6.561423	-6.564157	-2.188052
O	7.753975	-5.370611	-0.994506
O	3.379693	-3.381598	-3.381598
O	5.368871	-5.370611	-3.381598
O	5.566834	-3.182559	-1.193546
O	9.743153	-3.381598	-0.994506
O	5.566834	-1.193546	-3.182559
O	7.556012	-1.193546	-1.193546
O	7.556012	-3.182559	-3.182559
W	3.280711	-5.470131	-3.282079
W	7.654993	-3.282079	-1.094026
W	9.842134	-5.470131	-1.094026
W	5.467852	-3.282079	-3.282079
Ir	8.748564	0.000000	0.000000
Ir	10.935705	-2.188052	-2.188052
O	12.128257	-0.994506	-0.994506
O	7.753975	0.994506	-3.381598
O	9.743153	-0.994506	-3.381598
O	9.941116	1.193546	-1.193546
O	14.117435	0.994506	-0.994506
O	9.941116	3.182559	-3.182559
O	11.930294	3.182559	-1.193546
O	11.930294	1.193546	-3.182559
W	7.654993	-1.094026	-3.282079
W	12.029275	1.094026	-1.094026
W	14.216416	-1.094026	-1.094026
W	9.842134	1.094026	-3.282079
Ir	0.000000	-4.376105	-4.376105
Ir	2.187141	-6.564157	-6.564157
O	3.379693	-5.370611	-5.370611
O	-0.994589	-3.381598	-7.757703
O	0.994589	-5.370611	-7.757703
O	1.192552	-3.182559	-5.569651
O	5.368871	-3.381598	-5.370611
O	1.192552	-1.193546	-7.558664
O	3.181730	-1.193546	-5.569651
O	3.181730	-3.182559	-7.558664
W	-1.093570	-5.470131	-7.658183
W	3.280711	-3.282079	-5.470131
W	5.467852	-5.470131	-5.470131
W	1.093570	-3.282079	-7.658183
Ir	4.374282	0.000000	-4.376105
Ir	6.561423	-2.188052	-6.564157
O	7.753975	-0.994506	-5.370611
O	3.379693	0.994506	-7.757703
O	5.368871	-0.994506	-7.757703
O	5.566834	1.193546	-5.569651
O	9.743153	0.994506	-5.370611
O	5.566834	3.182559	-7.558664
O	7.556012	3.182559	-5.569651
O	7.556012	1.193546	-7.558664
W	3.280711	-1.094026	-7.658183
W	7.654993	1.094026	-5.470131
W	9.842134	-1.094026	-5.470131
W	5.467852	1.094026	-7.658183
