112

B	0.000000	0.000000	0.000000
B	2.170213	-2.170198	-2.170198
Eu	-1.085101	-1.085094	-3.255292
Eu	3.255314	1.085094	-1.085094
Eu	1.085101	1.085094	-3.255292
Eu	5.425527	-1.085094	-1.085094
O	0.874351	0.874451	-0.874451
O	-1.295862	1.295737	-3.044649
O	3.044564	-1.295737	-1.295737
O	1.295862	-1.295737	-3.044649
O	0.874351	3.465936	-3.465935
O	3.466075	3.465936	-0.874451
O	3.466075	0.874451	-3.465935
O	5.636288	1.295738	-1.295737
B	4.340425	4.340387	0.000000
B	6.510637	2.170189	-2.170198
Eu	3.255323	3.255293	-3.255292
Eu	7.595739	5.425481	-1.085094
Eu	5.425526	5.425481	-3.255292
Eu	9.765952	3.255293	-1.085094
O	5.214775	5.214837	-0.874451
O	3.044562	5.636124	-3.044649
O	7.384988	3.044649	-1.295737
O	5.636287	3.044649	-3.044649
O	5.214775	7.806322	-3.465935
O	7.806500	7.806322	-0.874451
O	7.806500	5.214837	-3.465935
O	9.976712	5.636124	-1.295737
B	-4.340425	0.000000	-4.340387
B	-2.170212	-2.170198	-6.510585
Eu	-5.425526	-1.085094	-7.595679
Eu	-1.085110	1.085094	-5.425481
Eu	-3.255323	1.085094	-7.595679
Eu	1.085103	-1.085094	-5.425481
O	-3.466074	0.874451	-5.214837
O	-5.636287	1.295737	-7.385035
O	-1.295861	-1.295737	-5.636124
O	-3.044562	-1.295737	-7.385035
O	-3.466074	3.465936	-7.806322
O	-0.874350	3.465936	-5.214837
O	-0.874350	0.874451	-7.806322
O	1.295863	1.295738	-5.636124
B	0.000000	4.340387	-4.340387
B	2.170213	2.170189	-6.510585
Eu	-1.085101	3.255293	-7.595679
Eu	3.255314	5.425481	-5.425481
Eu	1.085101	5.425481	-7.595679
Eu	5.425527	3.255293	-5.425481
O	0.874351	5.214837	-5.214837
O	-1.295862	5.636124	-7.385035
O	3.044564	3.044649	-5.636124
O	1.295862	3.044649	-7.385035
O	0.874351	7.806322	-7.806322
O	3.466075	7.806322	-5.214837
O	3.466075	5.214837	-7.806322
O	5.636288	5.636124	-5.636124
B	4.340425	-4.340387	0.000000
B	6.510637	-6.510585	-2.170198
Eu	3.255323	-5.425481	-3.255292
Eu	7.595739	-3.255293	-1.085094
Eu	5.425526	-3.255293	-3.255292
Eu	9.765952	-5.425481	-1.085094
O	5.214775	-3.465936	-0.874451
O	3.044562	-3.044649	-3.044649
O	7.384988	-5.636124	-1.295737
O	5.636287	-5.636124	-3.044649
O	5.214775	-0.874451	-3.465935
O	7.806500	-0.874451	-0.874451
O	7.806500	-3.465936	-3.465935
O	9.976712	-3.044649	-1.295737
B	8.680849	0.000000	0.000000
B	10.851062	-2.170198	-2.170198
Eu	7.595748	-1.085094	-3.255292
Eu	11.936163	1.085094	-1.085094
Eu	9.765951	1.085094	-3.255292
Eu	14.106376	-1.085094	-1.085094
O	9.555200	0.874451	-0.874451
O	7.384987	1.295737	-3.044649
O	11.725413	-1.295737	-1.295737
O	9.976711	-1.295737	-3.044649
O	9.555200	3.465936	-3.465935
O	12.146924	3.465936	-0.874451
O	12.146924	0.874451	-3.465935
O	14.317137	1.295738	-1.295737
B	0.000000	-4.340387	-4.340387
B	2.170213	-6.510585	-6.510585
Eu	-1.085101	-5.425481	-7.595679
Eu	3.255314	-3.255293	-5.425481
Eu	1.085101	-3.255293	-7.595679
Eu	5.425527	-5.425481	-5.425481
O	0.874351	-3.465936	-5.214837
O	-1.295862	-3.044649	-7.385035
O	3.044564	-5.636124	-5.636124
O	1.295862	-5.636124	-7.385035
O	0.874351	-0.874451	-7.806322
O	3.466075	-0.874451	-5.214837
O	3.466075	-3.465936	-7.806322
O	5.636288	-3.044649	-5.636124
B	4.340425	0.000000	-4.340387
B	6.510637	-2.170198	-6.510585
Eu	3.255323	-1.085094	-7.595679
Eu	7.595739	1.085094	-5.425481
Eu	5.425526	1.085094	-7.595679
Eu	9.765952	-1.085094	-5.425481
O	5.214775	0.874451	-5.214837
O	3.044562	1.295737	-7.385035
O	7.384988	-1.295737	-5.636124
O	5.636287	-1.295737	-7.385035
O	5.214775	3.465936	-7.806322
O	7.806500	3.465936	-5.214837
O	7.806500	0.874451	-7.806322
O	9.976712	1.295738	-5.636124
