40

Cu	1.847599	1.847599	1.847599
O	0.000000	1.847599	1.847599
O	1.847599	0.000000	1.847599
O	1.847599	1.847599	0.000000
Ti	0.000000	0.000000	0.000000
Cu	1.847599	1.847599	5.542798
O	0.000000	1.847599	5.542798
O	1.847599	0.000000	5.542798
O	1.847599	1.847599	3.695198
Ti	0.000000	0.000000	3.695198
Cu	1.847599	5.542798	1.847599
O	0.000000	5.542798	1.847599
O	1.847599	3.695198	1.847599
O	1.847599	5.542798	0.000000
Ti	0.000000	3.695198	0.000000
Cu	1.847599	5.542798	5.542798
O	0.000000	5.542798	5.542798
O	1.847599	3.695198	5.542798
O	1.847599	5.542798	3.695198
Ti	0.000000	3.695198	3.695198
Cu	5.542798	1.847599	1.847599
O	3.695198	1.847599	1.847599
O	5.542798	0.000000	1.847599
O	5.542798	1.847599	0.000000
Ti	3.695198	0.000000	0.000000
Cu	5.542798	1.847599	5.542798
O	3.695198	1.847599	5.542798
O	5.542798	0.000000	5.542798
O	5.542798	1.847599	3.695198
Ti	3.695198	0.000000	3.695198
Cu	5.542798	5.542798	1.847599
O	3.695198	5.542798	1.847599
O	5.542798	3.695198	1.847599
O	5.542798	5.542798	0.000000
Ti	3.695198	3.695198	0.000000
Cu	5.542798	5.542798	5.542798
O	3.695198	5.542798	5.542798
O	5.542798	3.695198	5.542798
O	5.542798	5.542798	3.695198
Ti	3.695198	3.695198	3.695198
