40

Cu	1.818384	1.818384	1.818384
O	1.818384	1.818384	0.000000
O	0.000000	1.818384	1.818384
O	1.818384	0.000000	1.818384
Ti	0.000000	0.000000	0.000000
Cu	1.818384	1.818384	5.455159
O	1.818384	1.818384	3.636775
O	0.000000	1.818384	5.455159
O	1.818384	0.000000	5.455159
Ti	0.000000	0.000000	3.636775
Cu	1.818384	5.455159	1.818384
O	1.818384	5.455159	0.000000
O	0.000000	5.455159	1.818384
O	1.818384	3.636775	1.818384
Ti	0.000000	3.636775	0.000000
Cu	1.818384	5.455159	5.455159
O	1.818384	5.455159	3.636775
O	0.000000	5.455159	5.455159
O	1.818384	3.636775	5.455159
Ti	0.000000	3.636775	3.636775
Cu	5.455159	1.818384	1.818384
O	5.455159	1.818384	0.000000
O	3.636775	1.818384	1.818384
O	5.455159	0.000000	1.818384
Ti	3.636775	0.000000	0.000000
Cu	5.455159	1.818384	5.455159
O	5.455159	1.818384	3.636775
O	3.636775	1.818384	5.455159
O	5.455159	0.000000	5.455159
Ti	3.636775	0.000000	3.636775
Cu	5.455159	5.455159	1.818384
O	5.455159	5.455159	0.000000
O	3.636775	5.455159	1.818384
O	5.455159	3.636775	1.818384
Ti	3.636775	3.636775	0.000000
Cu	5.455159	5.455159	5.455159
O	5.455159	5.455159	3.636775
O	3.636775	5.455159	5.455159
O	5.455159	3.636775	5.455159
Ti	3.636775	3.636775	3.636775
