112

Ho	0.000000	0.000000	0.000000
Ho	2.220696	-2.220985	-2.220985
Mg	-1.110348	-1.110493	-3.331478
Mg	3.331044	1.110493	-1.110493
Mg	5.551741	-1.110493	-1.110493
Mg	1.110348	1.110493	-3.331478
O	3.446146	-0.994699	-0.994699
O	-0.995247	0.994699	-3.447271
O	0.995247	-0.994699	-3.447271
O	1.225450	1.226286	-1.226286
O	5.436639	0.994699	-0.994699
O	1.225450	3.215684	-3.215684
O	3.215943	3.215684	-1.226286
O	3.215943	1.226286	-3.215684
Ho	4.441393	4.441970	0.000000
Ho	6.662089	2.220985	-2.220985
Mg	3.331044	3.331478	-3.331478
Mg	7.772437	5.552463	-1.110493
Mg	9.993133	3.331478	-1.110493
Mg	5.551741	5.552463	-3.331478
O	7.887538	3.447271	-0.994699
O	3.446146	5.436669	-3.447271
O	5.436639	3.447271	-3.447271
O	5.666842	5.668256	-1.226286
O	9.878032	5.436669	-0.994699
O	5.666842	7.657655	-3.215684
O	7.657336	7.657655	-1.226286
O	7.657336	5.668256	-3.215684
Ho	-4.441393	0.000000	-4.441970
Ho	-2.220696	-2.220985	-6.662955
Mg	-5.551741	-1.110493	-7.773448
Mg	-1.110348	1.110493	-5.552463
Mg	1.110348	-1.110493	-5.552463
Mg	-3.331044	1.110493	-7.773448
O	-0.995247	-0.994699	-5.436669
O	-5.436639	0.994699	-7.889242
O	-3.446146	-0.994699	-7.889242
O	-3.215943	1.226286	-5.668256
O	0.995247	0.994699	-5.436669
O	-3.215943	3.215684	-7.657655
O	-1.225450	3.215684	-5.668256
O	-1.225450	1.226286	-7.657655
Ho	0.000000	4.441970	-4.441970
Ho	2.220696	2.220985	-6.662955
Mg	-1.110348	3.331478	-7.773448
Mg	3.331044	5.552463	-5.552463
Mg	5.551741	3.331478	-5.552463
Mg	1.110348	5.552463	-7.773448
O	3.446146	3.447271	-5.436669
O	-0.995247	5.436669	-7.889242
O	0.995247	3.447271	-7.889242
O	1.225450	5.668256	-5.668256
O	5.436639	5.436669	-5.436669
O	1.225450	7.657655	-7.657655
O	3.215943	7.657655	-5.668256
O	3.215943	5.668256	-7.657655
Ho	4.441393	-4.441970	0.000000
Ho	6.662089	-6.662955	-2.220985
Mg	3.331044	-5.552463	-3.331478
Mg	7.772437	-3.331478	-1.110493
Mg	9.993133	-5.552463	-1.110493
Mg	5.551741	-3.331478	-3.331478
O	7.887538	-5.436669	-0.994699
O	3.446146	-3.447271	-3.447271
O	5.436639	-5.436669	-3.447271
O	5.666842	-3.215684	-1.226286
O	9.878032	-3.447271	-0.994699
O	5.666842	-1.226286	-3.215684
O	7.657336	-1.226286	-1.226286
O	7.657336	-3.215684	-3.215684
Ho	8.882785	0.000000	0.000000
Ho	11.103481	-2.220985	-2.220985
Mg	7.772437	-1.110493	-3.331478
Mg	12.213829	1.110493	-1.110493
Mg	14.434526	-1.110493	-1.110493
Mg	9.993133	1.110493	-3.331478
O	12.328931	-0.994699	-0.994699
O	7.887538	0.994699	-3.447271
O	9.878032	-0.994699	-3.447271
O	10.108235	1.226286	-1.226286
O	14.319424	0.994699	-0.994699
O	10.108235	3.215684	-3.215684
O	12.098728	3.215684	-1.226286
O	12.098728	1.226286	-3.215684
Ho	0.000000	-4.441970	-4.441970
Ho	2.220696	-6.662955	-6.662955
Mg	-1.110348	-5.552463	-7.773448
Mg	3.331044	-3.331478	-5.552463
Mg	5.551741	-5.552463	-5.552463
Mg	1.110348	-3.331478	-7.773448
O	3.446146	-5.436669	-5.436669
O	-0.995247	-3.447271	-7.889242
O	0.995247	-5.436669	-7.889242
O	1.225450	-3.215684	-5.668256
O	5.436639	-3.447271	-5.436669
O	1.225450	-1.226286	-7.657655
O	3.215943	-1.226286	-5.668256
O	3.215943	-3.215684	-7.657655
Ho	4.441393	0.000000	-4.441970
Ho	6.662089	-2.220985	-6.662955
Mg	3.331044	-1.110493	-7.773448
Mg	7.772437	1.110493	-5.552463
Mg	9.993133	-1.110493	-5.552463
Mg	5.551741	1.110493	-7.773448
O	7.887538	-0.994699	-5.436669
O	3.446146	0.994699	-7.889242
O	5.436639	-0.994699	-7.889242
O	5.666842	1.226286	-5.668256
O	9.878032	0.994699	-5.436669
O	5.666842	3.215684	-7.657655
O	7.657336	3.215684	-5.668256
O	7.657336	1.226286	-7.657655
