40

B	0.000000	0.000000	0.000000
In	2.086731	2.086731	2.086731
O	2.086731	2.086731	0.000000
O	2.086731	0.000000	2.086731
O	0.000000	2.086731	2.086731
B	0.000000	0.000000	4.173463
In	2.086731	2.086731	6.260194
O	2.086731	2.086731	4.173463
O	2.086731	0.000000	6.260194
O	0.000000	2.086731	6.260194
B	0.000000	4.173463	0.000000
In	2.086731	6.260194	2.086731
O	2.086731	6.260194	0.000000
O	2.086731	4.173463	2.086731
O	0.000000	6.260194	2.086731
B	0.000000	4.173463	4.173463
In	2.086731	6.260194	6.260194
O	2.086731	6.260194	4.173463
O	2.086731	4.173463	6.260194
O	0.000000	6.260194	6.260194
B	4.173463	0.000000	0.000000
In	6.260194	2.086731	2.086731
O	6.260194	2.086731	0.000000
O	6.260194	0.000000	2.086731
O	4.173463	2.086731	2.086731
B	4.173463	0.000000	4.173463
In	6.260194	2.086731	6.260194
O	6.260194	2.086731	4.173463
O	6.260194	0.000000	6.260194
O	4.173463	2.086731	6.260194
B	4.173463	4.173463	0.000000
In	6.260194	6.260194	2.086731
O	6.260194	6.260194	0.000000
O	6.260194	4.173463	2.086731
O	4.173463	6.260194	2.086731
B	4.173463	4.173463	4.173463
In	6.260194	6.260194	6.260194
O	6.260194	6.260194	4.173463
O	6.260194	4.173463	6.260194
O	4.173463	6.260194	6.260194
