40

Na	0.000000	-0.000000	0.000000
Cd	2.122453	2.124053	2.122156
O	2.122452	2.124053	0.000000
O	2.122450	0.000002	2.122156
O	0.000004	2.124050	2.122155
Na	0.000002	-0.000001	4.244311
Cd	2.122455	2.124052	6.366467
O	2.122454	2.124053	4.244311
O	2.122452	0.000001	6.366467
O	0.000005	2.124049	6.366466
Na	0.000005	4.248101	-0.000001
Cd	2.122458	6.372154	2.122155
O	2.122457	6.372155	-0.000001
O	2.122455	4.248103	2.122155
O	0.000008	6.372151	2.122154
Na	0.000006	4.248100	4.244310
Cd	2.122459	6.372153	6.366466
O	2.122459	6.372154	4.244310
O	2.122456	4.248102	6.366466
O	0.000010	6.372150	6.366465
Na	4.244900	0.000005	0.000002
Cd	6.367352	2.124057	2.122157
O	6.367352	2.124058	0.000002
O	6.367350	0.000007	2.122158
O	4.244903	2.124055	2.122156
Na	4.244901	0.000004	4.244313
Cd	6.367354	2.124056	6.366468
O	6.367353	2.124057	4.244313
O	6.367351	0.000006	6.366469
O	4.244905	2.124054	6.366467
Na	4.244904	4.248106	0.000001
Cd	6.367357	6.372159	2.122156
O	6.367357	6.372160	0.000001
O	6.367354	4.248108	2.122157
O	4.244908	6.372156	2.122156
Na	4.244906	4.248105	4.244312
Cd	6.367359	6.372158	6.366467
O	6.367358	6.372159	4.244312
O	6.367356	4.248107	6.366468
O	4.244910	6.372155	6.366467
