112

Au	0.000000	0.000000	0.000000
Au	2.318640	-2.319168	-2.319168
Cd	-1.159320	-1.159584	-3.478752
Cd	3.477961	1.159584	-1.159584
Cd	5.796601	-1.159584	-1.159584
Cd	1.159320	1.159584	-3.478752
O	3.522080	-1.114502	-1.114502
O	-1.115201	1.114502	-3.523834
O	1.115201	-1.114502	-3.523834
O	1.203440	1.204666	-1.204666
O	5.752482	1.114502	-1.114502
O	1.203440	3.433670	-3.433670
O	3.433841	3.433670	-1.204666
O	3.433841	1.204666	-3.433670
Au	4.637281	4.638336	0.000000
Au	6.955921	2.319168	-2.319168
Cd	3.477961	3.478752	-3.478752
Cd	8.115242	5.797919	-1.159584
Cd	10.433882	3.478752	-1.159584
Cd	5.796601	5.797919	-3.478752
O	8.159361	3.523834	-1.114502
O	3.522080	5.752837	-3.523834
O	5.752482	3.523834	-3.523834
O	5.840721	5.843002	-1.204666
O	10.389763	5.752837	-1.114502
O	5.840721	8.072005	-3.433670
O	8.071122	8.072005	-1.204666
O	8.071122	5.843002	-3.433670
Au	-4.637281	0.000000	-4.638336
Au	-2.318640	-2.319168	-6.957503
Cd	-5.796601	-1.159584	-8.117087
Cd	-1.159320	1.159584	-5.797919
Cd	1.159320	-1.159584	-5.797919
Cd	-3.477961	1.159584	-8.117087
O	-1.115201	-1.114502	-5.752837
O	-5.752482	1.114502	-8.162169
O	-3.522080	-1.114502	-8.162169
O	-3.433841	1.204666	-5.843002
O	1.115201	1.114502	-5.752837
O	-3.433841	3.433670	-8.072005
O	-1.203440	3.433670	-5.843002
O	-1.203440	1.204666	-8.072005
Au	0.000000	4.638336	-4.638336
Au	2.318640	2.319168	-6.957503
Cd	-1.159320	3.478752	-8.117087
Cd	3.477961	5.797919	-5.797919
Cd	5.796601	3.478752	-5.797919
Cd	1.159320	5.797919	-8.117087
O	3.522080	3.523834	-5.752837
O	-1.115201	5.752837	-8.162169
O	1.115201	3.523834	-8.162169
O	1.203440	5.843002	-5.843002
O	5.752482	5.752837	-5.752837
O	1.203440	8.072005	-8.072005
O	3.433841	8.072005	-5.843002
O	3.433841	5.843002	-8.072005
Au	4.637281	-4.638336	0.000000
Au	6.955921	-6.957503	-2.319168
Cd	3.477961	-5.797919	-3.478752
Cd	8.115242	-3.478752	-1.159584
Cd	10.433882	-5.797919	-1.159584
Cd	5.796601	-3.478752	-3.478752
O	8.159361	-5.752837	-1.114502
O	3.522080	-3.523834	-3.523834
O	5.752482	-5.752837	-3.523834
O	5.840721	-3.433670	-1.204666
O	10.389763	-3.523834	-1.114502
O	5.840721	-1.204666	-3.433670
O	8.071122	-1.204666	-1.204666
O	8.071122	-3.433670	-3.433670
Au	9.274562	0.000000	0.000000
Au	11.593202	-2.319168	-2.319168
Cd	8.115242	-1.159584	-3.478752
Cd	12.752523	1.159584	-1.159584
Cd	15.071163	-1.159584	-1.159584
Cd	10.433882	1.159584	-3.478752
O	12.796642	-1.114502	-1.114502
O	8.159361	1.114502	-3.523834
O	10.389763	-1.114502	-3.523834
O	10.478002	1.204666	-1.204666
O	15.027043	1.114502	-1.114502
O	10.478002	3.433670	-3.433670
O	12.708403	3.433670	-1.204666
O	12.708403	1.204666	-3.433670
Au	0.000000	-4.638336	-4.638336
Au	2.318640	-6.957503	-6.957503
Cd	-1.159320	-5.797919	-8.117087
Cd	3.477961	-3.478752	-5.797919
Cd	5.796601	-5.797919	-5.797919
Cd	1.159320	-3.478752	-8.117087
O	3.522080	-5.752837	-5.752837
O	-1.115201	-3.523834	-8.162169
O	1.115201	-5.752837	-8.162169
O	1.203440	-3.433670	-5.843002
O	5.752482	-3.523834	-5.752837
O	1.203440	-1.204666	-8.072005
O	3.433841	-1.204666	-5.843002
O	3.433841	-3.433670	-8.072005
Au	4.637281	0.000000	-4.638336
Au	6.955921	-2.319168	-6.957503
Cd	3.477961	-1.159584	-8.117087
Cd	8.115242	1.159584	-5.797919
Cd	10.433882	-1.159584	-5.797919
Cd	5.796601	1.159584	-8.117087
O	8.159361	-1.114502	-5.752837
O	3.522080	1.114502	-8.162169
O	5.752482	-1.114502	-8.162169
O	5.840721	1.204666	-5.843002
O	10.389763	1.114502	-5.752837
O	5.840721	3.433670	-8.072005
O	8.071122	3.433670	-5.843002
O	8.071122	1.204666	-8.072005
