40

Au	2.049965	2.049965	2.049965
Na	0.000000	0.000000	0.000000
O	0.000000	2.049965	2.049965
O	2.049965	0.000000	2.049965
O	2.049965	2.049965	0.000000
Au	2.049965	2.049965	6.149895
Na	0.000000	0.000000	4.099930
O	0.000000	2.049965	6.149895
O	2.049965	0.000000	6.149895
O	2.049965	2.049965	4.099930
Au	2.049965	6.149895	2.049965
Na	0.000000	4.099930	0.000000
O	0.000000	6.149895	2.049965
O	2.049965	4.099930	2.049965
O	2.049965	6.149895	0.000000
Au	2.049965	6.149895	6.149895
Na	0.000000	4.099930	4.099930
O	0.000000	6.149895	6.149895
O	2.049965	4.099930	6.149895
O	2.049965	6.149895	4.099930
Au	6.149895	2.049965	2.049965
Na	4.099930	0.000000	0.000000
O	4.099930	2.049965	2.049965
O	6.149895	0.000000	2.049965
O	6.149895	2.049965	0.000000
Au	6.149895	2.049965	6.149895
Na	4.099930	0.000000	4.099930
O	4.099930	2.049965	6.149895
O	6.149895	0.000000	6.149895
O	6.149895	2.049965	4.099930
Au	6.149895	6.149895	2.049965
Na	4.099930	4.099930	0.000000
O	4.099930	6.149895	2.049965
O	6.149895	4.099930	2.049965
O	6.149895	6.149895	0.000000
Au	6.149895	6.149895	6.149895
Na	4.099930	4.099930	4.099930
O	4.099930	6.149895	6.149895
O	6.149895	4.099930	6.149895
O	6.149895	6.149895	4.099930
