40

Au	0.000000	0.000000	0.000000
Na	2.013367	2.013367	2.013367
O	2.013367	2.013367	0.000000
O	2.013367	0.000000	2.013367
O	0.000000	2.013367	2.013367
Au	0.000000	0.000000	4.026740
Na	2.013367	2.013367	6.040107
O	2.013367	2.013367	4.026740
O	2.013367	0.000000	6.040107
O	0.000000	2.013367	6.040107
Au	0.000000	4.026740	0.000000
Na	2.013367	6.040107	2.013367
O	2.013367	6.040107	0.000000
O	2.013367	4.026740	2.013367
O	0.000000	6.040107	2.013367
Au	0.000000	4.026740	4.026740
Na	2.013367	6.040107	6.040107
O	2.013367	6.040107	4.026740
O	2.013367	4.026740	6.040107
O	0.000000	6.040107	6.040107
Au	4.026740	0.000000	0.000000
Na	6.040107	2.013367	2.013367
O	6.040107	2.013367	0.000000
O	6.040107	0.000000	2.013367
O	4.026740	2.013367	2.013367
Au	4.026740	0.000000	4.026740
Na	6.040107	2.013367	6.040107
O	6.040107	2.013367	4.026740
O	6.040107	0.000000	6.040107
O	4.026740	2.013367	6.040107
Au	4.026740	4.026740	0.000000
Na	6.040107	6.040107	2.013367
O	6.040107	6.040107	0.000000
O	6.040107	4.026740	2.013367
O	4.026740	6.040107	2.013367
Au	4.026740	4.026740	4.026740
Na	6.040107	6.040107	6.040107
O	6.040107	6.040107	4.026740
O	6.040107	4.026740	6.040107
O	4.026740	6.040107	6.040107
