112

O	-1.122822	1.122497	-3.689361
O	3.687805	-1.122497	-1.122497
O	1.122822	-1.122497	-3.689361
O	1.282496	1.283432	-1.283432
O	5.933449	1.122497	-1.122497
O	1.282496	3.528426	-3.528426
O	3.528131	3.528426	-1.283432
O	3.528131	1.283432	-3.528426
Th	0.000000	0.000000	0.000000
Th	2.405318	-2.405929	-2.405929
Yb	-1.202654	-1.202969	-3.608899
Yb	6.013281	-1.202969	-1.202969
Yb	1.202654	1.202970	-3.608899
Yb	3.607973	1.202970	-1.202969
O	3.687805	5.934358	-3.689361
O	8.498432	3.689364	-1.122497
O	5.933449	3.689364	-3.689361
O	6.093123	6.095293	-1.283432
O	10.744076	5.934358	-1.122497
O	6.093123	8.340287	-3.528426
O	8.338758	8.340287	-1.283432
O	8.338758	6.095293	-3.528426
Th	4.810627	4.811861	0.000000
Th	7.215946	2.405932	-2.405929
Yb	3.607973	3.608892	-3.608899
Yb	10.823908	3.608892	-1.202969
Yb	6.013281	6.014831	-3.608899
Yb	8.418600	6.014831	-1.202969
O	-5.933449	1.122497	-8.501222
O	-1.122823	-1.122497	-5.934358
O	-3.687805	-1.122497	-8.501222
O	-3.528131	1.283432	-6.095293
O	1.122822	1.122497	-5.934358
O	-3.528131	3.528426	-8.340287
O	-1.282497	3.528426	-6.095293
O	-1.282497	1.283432	-8.340287
Th	-4.810627	0.000000	-4.811861
Th	-2.405309	-2.405929	-7.217790
Yb	-6.013282	-1.202969	-8.420760
Yb	1.202654	-1.202969	-6.014831
Yb	-3.607973	1.202970	-8.420760
Yb	-1.202655	1.202970	-6.014831
O	-1.122822	5.934358	-8.501222
O	3.687805	3.689364	-5.934358
O	1.122822	3.689364	-8.501222
O	1.282496	6.095293	-6.095293
O	5.933449	5.934358	-5.934358
O	1.282496	8.340287	-8.340287
O	3.528131	8.340287	-6.095293
O	3.528131	6.095293	-8.340287
Th	0.000000	4.811861	-4.811861
Th	2.405318	2.405932	-7.217790
Yb	-1.202654	3.608892	-8.420760
Yb	6.013281	3.608892	-6.014831
Yb	1.202654	6.014831	-8.420760
Yb	3.607973	6.014831	-6.014831
O	3.687805	-3.689364	-3.689361
O	8.498432	-5.934358	-1.122497
O	5.933449	-5.934358	-3.689361
O	6.093123	-3.528429	-1.283432
O	10.744076	-3.689364	-1.122497
O	6.093123	-1.283435	-3.528426
O	8.338758	-1.283435	-1.283432
O	8.338758	-3.528429	-3.528426
Th	4.810627	-4.811861	0.000000
Th	7.215946	-7.217790	-2.405929
Yb	3.607973	-6.014831	-3.608899
Yb	10.823908	-6.014831	-1.202969
Yb	6.013281	-3.608892	-3.608899
Yb	8.418600	-3.608892	-1.202969
O	8.498432	1.122497	-3.689361
O	13.309059	-1.122497	-1.122497
O	10.744077	-1.122497	-3.689361
O	10.903751	1.283432	-1.283432
O	15.554704	1.122497	-1.122497
O	10.903751	3.528426	-3.528426
O	13.149385	3.528426	-1.283432
O	13.149385	1.283432	-3.528426
Th	9.621254	0.000000	0.000000
Th	12.026573	-2.405929	-2.405929
Yb	8.418600	-1.202969	-3.608899
Yb	15.634536	-1.202969	-1.202969
Yb	10.823909	1.202970	-3.608899
Yb	13.229227	1.202970	-1.202969
O	-1.122822	-3.689364	-8.501222
O	3.687805	-5.934358	-5.934358
O	1.122822	-5.934358	-8.501222
O	1.282496	-3.528429	-6.095293
O	5.933449	-3.689364	-5.934358
O	1.282496	-1.283435	-8.340287
O	3.528131	-1.283435	-6.095293
O	3.528131	-3.528429	-8.340287
Th	0.000000	-4.811861	-4.811861
Th	2.405318	-7.217790	-7.217790
Yb	-1.202654	-6.014831	-8.420760
Yb	6.013281	-6.014831	-6.014831
Yb	1.202654	-3.608892	-8.420760
Yb	3.607973	-3.608892	-6.014831
O	3.687805	1.122497	-8.501222
O	8.498432	-1.122497	-5.934358
O	5.933449	-1.122497	-8.501222
O	6.093123	1.283432	-6.095293
O	10.744076	1.122497	-5.934358
O	6.093123	3.528426	-8.340287
O	8.338758	3.528426	-6.095293
O	8.338758	1.283432	-8.340287
Th	4.810627	0.000000	-4.811861
Th	7.215946	-2.405929	-7.217790
Yb	3.607973	-1.202969	-8.420760
Yb	10.823908	-1.202969	-6.014831
Yb	6.013281	1.202970	-8.420760
Yb	8.418600	1.202970	-6.014831
