40

Mg	1.958826	1.958826	1.958826
O	0.000000	1.958826	1.958826
O	1.958826	0.000000	1.958826
O	1.958826	1.958826	0.000000
Pd	0.000000	0.000000	0.000000
Mg	1.958826	1.958826	5.876477
O	0.000000	1.958826	5.876477
O	1.958826	0.000000	5.876477
O	1.958826	1.958826	3.917651
Pd	0.000000	0.000000	3.917651
Mg	1.958826	5.876477	1.958826
O	0.000000	5.876477	1.958826
O	1.958826	3.917651	1.958826
O	1.958826	5.876477	0.000000
Pd	0.000000	3.917651	0.000000
Mg	1.958826	5.876477	5.876477
O	0.000000	5.876477	5.876477
O	1.958826	3.917651	5.876477
O	1.958826	5.876477	3.917651
Pd	0.000000	3.917651	3.917651
Mg	5.876477	1.958826	1.958826
O	3.917651	1.958826	1.958826
O	5.876477	0.000000	1.958826
O	5.876477	1.958826	0.000000
Pd	3.917651	0.000000	0.000000
Mg	5.876477	1.958826	5.876477
O	3.917651	1.958826	5.876477
O	5.876477	0.000000	5.876477
O	5.876477	1.958826	3.917651
Pd	3.917651	0.000000	3.917651
Mg	5.876477	5.876477	1.958826
O	3.917651	5.876477	1.958826
O	5.876477	3.917651	1.958826
O	5.876477	5.876477	0.000000
Pd	3.917651	3.917651	0.000000
Mg	5.876477	5.876477	5.876477
O	3.917651	5.876477	5.876477
O	5.876477	3.917651	5.876477
O	5.876477	5.876477	3.917651
Pd	3.917651	3.917651	3.917651
