112

Bi	0.000000	0.000000	0.000000
Bi	2.536188	-2.538139	-2.538139
Np	-1.268089	-1.269069	-3.807198
Np	1.268089	1.269069	-3.807198
Np	6.340466	-1.269069	-1.269069
Np	3.804278	1.269069	-1.269069
O	-1.127148	1.127493	-3.948774
O	3.945229	-1.127493	-1.127493
O	1.127148	-1.127493	-3.948774
O	1.409040	1.410635	-1.410635
O	6.199515	1.127493	-1.127493
O	1.409040	3.665632	-3.665632
O	3.663327	3.665632	-1.410635
O	3.663327	1.410635	-3.665632
Bi	5.072371	5.076269	0.000000
Bi	7.608560	2.538131	-2.538139
Np	3.804282	3.807200	-3.807198
Np	6.340461	6.345339	-3.807198
Np	11.412837	3.807200	-1.269069
Np	8.876649	6.345339	-1.269069
O	3.945223	6.203762	-3.948774
O	9.017600	3.948776	-1.127493
O	6.199520	3.948776	-3.948774
O	6.481411	6.486905	-1.410635
O	11.271887	6.203762	-1.127493
O	6.481411	8.741901	-3.665632
O	8.735698	8.741901	-1.410635
O	8.735698	6.486905	-3.665632
Bi	-5.072371	0.000000	-5.076269
Bi	-2.536183	-2.538139	-7.614408
Np	-6.340461	-1.269069	-8.883467
Np	-3.804282	1.269069	-8.883467
Np	1.268095	-1.269069	-6.345339
Np	-1.268094	1.269069	-6.345339
O	-6.199520	1.127493	-9.025044
O	-1.127143	-1.127493	-6.203762
O	-3.945223	-1.127493	-9.025044
O	-3.663331	1.410635	-6.486905
O	1.127144	1.127493	-6.203762
O	-3.663331	3.665632	-8.741901
O	-1.409045	3.665632	-6.486905
O	-1.409045	1.410635	-8.741901
Bi	0.000000	5.076269	-5.076269
Bi	2.536188	2.538131	-7.614408
Np	-1.268089	3.807200	-8.883467
Np	1.268089	6.345339	-8.883467
Np	6.340466	3.807200	-6.345339
Np	3.804278	6.345339	-6.345339
O	-1.127148	6.203762	-9.025044
O	3.945229	3.948776	-6.203762
O	1.127148	3.948776	-9.025044
O	1.409040	6.486905	-6.486905
O	6.199515	6.203762	-6.203762
O	1.409040	8.741901	-8.741901
O	3.663327	8.741901	-6.486905
O	3.663327	6.486905	-8.741901
Bi	5.072371	-5.076269	0.000000
Bi	7.608560	-7.614408	-2.538139
Np	3.804282	-6.345339	-3.807198
Np	6.340461	-3.807200	-3.807198
Np	11.412837	-6.345339	-1.269069
Np	8.876649	-3.807200	-1.269069
O	3.945223	-3.948776	-3.948774
O	9.017600	-6.203763	-1.127493
O	6.199520	-6.203762	-3.948774
O	6.481411	-3.665634	-1.410635
O	11.271887	-3.948776	-1.127493
O	6.481411	-1.410638	-3.665632
O	8.735698	-1.410638	-1.410635
O	8.735698	-3.665634	-3.665632
Bi	10.144743	0.000000	0.000000
Bi	12.680931	-2.538139	-2.538139
Np	8.876654	-1.269069	-3.807198
Np	11.412832	1.269069	-3.807198
Np	16.485209	-1.269069	-1.269069
Np	13.949020	1.269069	-1.269069
O	9.017594	1.127493	-3.948774
O	14.089971	-1.127493	-1.127493
O	11.271891	-1.127493	-3.948774
O	11.553783	1.410635	-1.410635
O	16.344258	1.127493	-1.127493
O	11.553783	3.665632	-3.665632
O	13.808070	3.665632	-1.410635
O	13.808070	1.410635	-3.665632
Bi	0.000000	-5.076269	-5.076269
Bi	2.536188	-7.614408	-7.614408
Np	-1.268089	-6.345339	-8.883467
Np	1.268089	-3.807200	-8.883467
Np	6.340466	-6.345339	-6.345339
Np	3.804278	-3.807200	-6.345339
O	-1.127148	-3.948776	-9.025044
O	3.945229	-6.203763	-6.203762
O	1.127148	-6.203762	-9.025044
O	1.409040	-3.665634	-6.486905
O	6.199515	-3.948776	-6.203762
O	1.409040	-1.410638	-8.741901
O	3.663327	-1.410638	-6.486905
O	3.663327	-3.665634	-8.741901
Bi	5.072371	0.000000	-5.076269
Bi	7.608560	-2.538139	-7.614408
Np	3.804282	-1.269069	-8.883467
Np	6.340461	1.269069	-8.883467
Np	11.412837	-1.269069	-6.345339
Np	8.876649	1.269069	-6.345339
O	3.945223	1.127493	-9.025044
O	9.017600	-1.127493	-6.203762
O	6.199520	-1.127493	-9.025044
O	6.481411	1.410635	-6.486905
O	11.271887	1.127493	-6.203762
O	6.481411	3.665632	-8.741901
O	8.735698	3.665632	-6.486905
O	8.735698	1.410635	-8.741901
