40

As	1.862540	1.862540	1.862540
Na	0.000000	0.000000	0.000000
O	1.862540	1.862540	0.000000
O	1.862540	0.000000	1.862540
O	0.000000	1.862540	1.862540
As	1.862540	1.862540	5.587620
Na	0.000000	0.000000	3.725080
O	1.862540	1.862540	3.725080
O	1.862540	0.000000	5.587620
O	0.000000	1.862540	5.587620
As	1.862540	5.587620	1.862540
Na	0.000000	3.725080	0.000000
O	1.862540	5.587620	0.000000
O	1.862540	3.725080	1.862540
O	0.000000	5.587620	1.862540
As	1.862540	5.587620	5.587620
Na	0.000000	3.725080	3.725080
O	1.862540	5.587620	3.725080
O	1.862540	3.725080	5.587620
O	0.000000	5.587620	5.587620
As	5.587620	1.862540	1.862540
Na	3.725080	0.000000	0.000000
O	5.587620	1.862540	0.000000
O	5.587620	0.000000	1.862540
O	3.725080	1.862540	1.862540
As	5.587620	1.862540	5.587620
Na	3.725080	0.000000	3.725080
O	5.587620	1.862540	3.725080
O	5.587620	0.000000	5.587620
O	3.725080	1.862540	5.587620
As	5.587620	5.587620	1.862540
Na	3.725080	3.725080	0.000000
O	5.587620	5.587620	0.000000
O	5.587620	3.725080	1.862540
O	3.725080	5.587620	1.862540
As	5.587620	5.587620	5.587620
Na	3.725080	3.725080	3.725080
O	5.587620	5.587620	3.725080
O	5.587620	3.725080	5.587620
O	3.725080	5.587620	5.587620
