40

As	1.879630	1.879630	1.879630
O	1.879630	1.879630	0.000000
O	0.000000	1.879630	1.879630
O	1.879630	0.000000	1.879630
Zn	0.000000	0.000000	0.000000
As	1.879630	1.879630	5.638881
O	1.879630	1.879630	3.759251
O	0.000000	1.879630	5.638881
O	1.879630	0.000000	5.638881
Zn	0.000000	0.000000	3.759251
As	1.879630	5.638881	1.879630
O	1.879630	5.638881	0.000000
O	0.000000	5.638881	1.879630
O	1.879630	3.759251	1.879630
Zn	0.000000	3.759251	0.000000
As	1.879630	5.638881	5.638881
O	1.879630	5.638881	3.759251
O	0.000000	5.638881	5.638881
O	1.879630	3.759251	5.638881
Zn	0.000000	3.759251	3.759251
As	5.638881	1.879630	1.879630
O	5.638881	1.879630	0.000000
O	3.759251	1.879630	1.879630
O	5.638881	0.000000	1.879630
Zn	3.759251	0.000000	0.000000
As	5.638881	1.879630	5.638881
O	5.638881	1.879630	3.759251
O	3.759251	1.879630	5.638881
O	5.638881	0.000000	5.638881
Zn	3.759251	0.000000	3.759251
As	5.638881	5.638881	1.879630
O	5.638881	5.638881	0.000000
O	3.759251	5.638881	1.879630
O	5.638881	3.759251	1.879630
Zn	3.759251	3.759251	0.000000
As	5.638881	5.638881	5.638881
O	5.638881	5.638881	3.759251
O	3.759251	5.638881	5.638881
O	5.638881	3.759251	5.638881
Zn	3.759251	3.759251	3.759251
