40

Ce	2.245497	2.245497	2.245497
Co	0.000000	0.000000	0.000000
O	2.245497	2.245497	0.000000
O	2.245497	0.000000	2.245497
O	0.000000	2.245497	2.245497
Ce	2.245497	2.245497	6.736483
Co	0.000000	0.000000	4.490985
O	2.245497	2.245497	4.490985
O	2.245497	0.000000	6.736483
O	0.000000	2.245497	6.736483
Ce	2.245497	6.736483	2.245497
Co	0.000000	4.490985	0.000000
O	2.245497	6.736483	0.000000
O	2.245497	4.490985	2.245497
O	0.000000	6.736483	2.245497
Ce	2.245497	6.736483	6.736483
Co	0.000000	4.490985	4.490985
O	2.245497	6.736483	4.490985
O	2.245497	4.490985	6.736483
O	0.000000	6.736483	6.736483
Ce	6.736483	2.245497	2.245497
Co	4.490985	0.000000	0.000000
O	6.736483	2.245497	0.000000
O	6.736483	0.000000	2.245497
O	4.490985	2.245497	2.245497
Ce	6.736483	2.245497	6.736483
Co	4.490985	0.000000	4.490985
O	6.736483	2.245497	4.490985
O	6.736483	0.000000	6.736483
O	4.490985	2.245497	6.736483
Ce	6.736483	6.736483	2.245497
Co	4.490985	4.490985	0.000000
O	6.736483	6.736483	0.000000
O	6.736483	4.490985	2.245497
O	4.490985	6.736483	2.245497
Ce	6.736483	6.736483	6.736483
Co	4.490985	4.490985	4.490985
O	6.736483	6.736483	4.490985
O	6.736483	4.490985	6.736483
O	4.490985	6.736483	6.736483
