40

Ce	2.261430	2.261430	2.261430
Co	0.000000	0.000000	0.000000
O	2.261430	2.261430	0.000000
O	2.261430	0.000000	2.261430
O	0.000000	2.261430	2.261430
Ce	2.261430	2.261430	6.784290
Co	0.000000	0.000000	4.522860
O	2.261430	2.261430	4.522860
O	2.261430	0.000000	6.784290
O	0.000000	2.261430	6.784290
Ce	2.261430	6.784290	2.261430
Co	0.000000	4.522860	0.000000
O	2.261430	6.784290	0.000000
O	2.261430	4.522860	2.261430
O	0.000000	6.784290	2.261430
Ce	2.261430	6.784290	6.784290
Co	0.000000	4.522860	4.522860
O	2.261430	6.784290	4.522860
O	2.261430	4.522860	6.784290
O	0.000000	6.784290	6.784290
Ce	6.784290	2.261430	2.261430
Co	4.522860	0.000000	0.000000
O	6.784290	2.261430	0.000000
O	6.784290	0.000000	2.261430
O	4.522860	2.261430	2.261430
Ce	6.784290	2.261430	6.784290
Co	4.522860	0.000000	4.522860
O	6.784290	2.261430	4.522860
O	6.784290	0.000000	6.784290
O	4.522860	2.261430	6.784290
Ce	6.784290	6.784290	2.261430
Co	4.522860	4.522860	0.000000
O	6.784290	6.784290	0.000000
O	6.784290	4.522860	2.261430
O	4.522860	6.784290	2.261430
Ce	6.784290	6.784290	6.784290
Co	4.522860	4.522860	4.522860
O	6.784290	6.784290	4.522860
O	6.784290	4.522860	6.784290
O	4.522860	6.784290	6.784290
