40

K	2.144178	2.144178	2.144178
O	2.144178	0.000000	0.000000
O	0.000000	2.144178	0.000000
O	0.000000	0.000000	2.144178
U	0.000000	0.000000	0.000000
K	2.144178	2.144178	6.432534
O	2.144178	0.000000	4.288356
O	0.000000	2.144178	4.288356
O	0.000000	0.000000	6.432534
U	0.000000	0.000000	4.288356
K	2.144178	6.432534	2.144178
O	2.144178	4.288356	0.000000
O	0.000000	6.432534	0.000000
O	0.000000	4.288356	2.144178
U	0.000000	4.288356	0.000000
K	2.144178	6.432534	6.432534
O	2.144178	4.288356	4.288356
O	0.000000	6.432534	4.288356
O	0.000000	4.288356	6.432534
U	0.000000	4.288356	4.288356
K	6.432534	2.144178	2.144178
O	6.432534	0.000000	0.000000
O	4.288356	2.144178	0.000000
O	4.288356	0.000000	2.144178
U	4.288356	0.000000	0.000000
K	6.432534	2.144178	6.432534
O	6.432534	0.000000	4.288356
O	4.288356	2.144178	4.288356
O	4.288356	0.000000	6.432534
U	4.288356	0.000000	4.288356
K	6.432534	6.432534	2.144178
O	6.432534	4.288356	0.000000
O	4.288356	6.432534	0.000000
O	4.288356	4.288356	2.144178
U	4.288356	4.288356	0.000000
K	6.432534	6.432534	6.432534
O	6.432534	4.288356	4.288356
O	4.288356	6.432534	4.288356
O	4.288356	4.288356	6.432534
U	4.288356	4.288356	4.288356
