40

In	0.000000	0.000000	0.000000
O	2.191118	2.191118	0.000000
O	2.191118	0.000000	2.191118
O	0.000000	2.191118	2.191118
Tb	2.191118	2.191118	2.191118
In	0.000000	0.000000	4.382237
O	2.191118	2.191118	4.382237
O	2.191118	0.000000	6.573355
O	0.000000	2.191118	6.573355
Tb	2.191118	2.191118	6.573355
In	0.000000	4.382237	0.000000
O	2.191118	6.573355	0.000000
O	2.191118	4.382237	2.191118
O	0.000000	6.573355	2.191118
Tb	2.191118	6.573355	2.191118
In	0.000000	4.382237	4.382237
O	2.191118	6.573355	4.382237
O	2.191118	4.382237	6.573355
O	0.000000	6.573355	6.573355
Tb	2.191118	6.573355	6.573355
In	4.382237	0.000000	0.000000
O	6.573355	2.191118	0.000000
O	6.573355	0.000000	2.191118
O	4.382237	2.191118	2.191118
Tb	6.573355	2.191118	2.191118
In	4.382237	0.000000	4.382237
O	6.573355	2.191118	4.382237
O	6.573355	0.000000	6.573355
O	4.382237	2.191118	6.573355
Tb	6.573355	2.191118	6.573355
In	4.382237	4.382237	0.000000
O	6.573355	6.573355	0.000000
O	6.573355	4.382237	2.191118
O	4.382237	6.573355	2.191118
Tb	6.573355	6.573355	2.191118
In	4.382237	4.382237	4.382237
O	6.573355	6.573355	4.382237
O	6.573355	4.382237	6.573355
O	4.382237	6.573355	6.573355
Tb	6.573355	6.573355	6.573355
