112

Al	0.000000	0.000000	0.000000
Al	2.138477	-2.140315	-2.140315
Ir	-1.069239	-1.070157	-3.210472
Ir	3.207716	1.070157	-1.070157
Ir	5.346193	-1.070157	-1.070157
Ir	1.069239	1.070157	-3.210472
O	3.201265	-1.077189	-1.077189
O	-1.075690	1.077189	-3.203440
O	1.075690	-1.077189	-3.203440
O	1.062788	1.063125	-1.063125
O	5.352644	1.077189	-1.077189
O	1.062788	3.217504	-3.217504
O	3.214167	3.217504	-1.063125
O	3.214167	1.063125	-3.217504
Al	4.276955	4.280630	0.000000
Al	6.415432	2.140315	-2.140315
Ir	3.207716	3.210472	-3.210472
Ir	7.484671	5.350787	-1.070157
Ir	9.623148	3.210472	-1.070157
Ir	5.346193	5.350787	-3.210472
O	7.478220	3.203440	-1.077189
O	3.201265	5.357819	-3.203440
O	5.352644	3.203440	-3.203440
O	5.339742	5.343755	-1.063125
O	9.629599	5.357819	-1.077189
O	5.339742	7.498134	-3.217504
O	7.491122	7.498134	-1.063125
O	7.491122	5.343755	-3.217504
Al	-4.276955	0.000000	-4.280630
Al	-2.138477	-2.140315	-6.420945
Ir	-5.346193	-1.070157	-7.491102
Ir	-1.069239	1.070157	-5.350787
Ir	1.069239	-1.070157	-5.350787
Ir	-3.207716	1.070157	-7.491102
O	-1.075690	-1.077189	-5.357819
O	-5.352644	1.077189	-7.484070
O	-3.201265	-1.077189	-7.484070
O	-3.214167	1.063125	-5.343755
O	1.075690	1.077189	-5.357819
O	-3.214167	3.217504	-7.498134
O	-1.062788	3.217504	-5.343755
O	-1.062788	1.063125	-7.498134
Al	0.000000	4.280630	-4.280630
Al	2.138477	2.140315	-6.420945
Ir	-1.069239	3.210472	-7.491102
Ir	3.207716	5.350787	-5.350787
Ir	5.346193	3.210472	-5.350787
Ir	1.069239	5.350787	-7.491102
O	3.201265	3.203440	-5.357819
O	-1.075690	5.357819	-7.484070
O	1.075690	3.203440	-7.484070
O	1.062788	5.343755	-5.343755
O	5.352644	5.357819	-5.357819
O	1.062788	7.498134	-7.498134
O	3.214167	7.498134	-5.343755
O	3.214167	5.343755	-7.498134
Al	4.276955	-4.280630	0.000000
Al	6.415432	-6.420945	-2.140315
Ir	3.207716	-5.350787	-3.210472
Ir	7.484671	-3.210472	-1.070157
Ir	9.623148	-5.350787	-1.070157
Ir	5.346193	-3.210472	-3.210472
O	7.478220	-5.357819	-1.077189
O	3.201265	-3.203440	-3.203440
O	5.352644	-5.357819	-3.203440
O	5.339742	-3.217504	-1.063125
O	9.629599	-3.203440	-1.077189
O	5.339742	-1.063125	-3.217504
O	7.491122	-1.063125	-1.063125
O	7.491122	-3.217504	-3.217504
Al	8.553909	0.000000	0.000000
Al	10.692387	-2.140315	-2.140315
Ir	7.484671	-1.070157	-3.210472
Ir	11.761625	1.070157	-1.070157
Ir	13.900103	-1.070157	-1.070157
Ir	9.623148	1.070157	-3.210472
O	11.755174	-1.077189	-1.077189
O	7.478220	1.077189	-3.203440
O	9.629599	-1.077189	-3.203440
O	9.616697	1.063125	-1.063125
O	13.906554	1.077189	-1.077189
O	9.616697	3.217504	-3.217504
O	11.768076	3.217504	-1.063125
O	11.768076	1.063125	-3.217504
Al	0.000000	-4.280630	-4.280630
Al	2.138477	-6.420945	-6.420945
Ir	-1.069239	-5.350787	-7.491102
Ir	3.207716	-3.210472	-5.350787
Ir	5.346193	-5.350787	-5.350787
Ir	1.069239	-3.210472	-7.491102
O	3.201265	-5.357819	-5.357819
O	-1.075690	-3.203440	-7.484070
O	1.075690	-5.357819	-7.484070
O	1.062788	-3.217504	-5.343755
O	5.352644	-3.203440	-5.357819
O	1.062788	-1.063125	-7.498134
O	3.214167	-1.063125	-5.343755
O	3.214167	-3.217504	-7.498134
Al	4.276955	0.000000	-4.280630
Al	6.415432	-2.140315	-6.420945
Ir	3.207716	-1.070157	-7.491102
Ir	7.484671	1.070157	-5.350787
Ir	9.623148	-1.070157	-5.350787
Ir	5.346193	1.070157	-7.491102
O	7.478220	-1.077189	-5.357819
O	3.201265	1.077189	-7.484070
O	5.352644	-1.077189	-7.484070
O	5.339742	1.063125	-5.343755
O	9.629599	1.077189	-5.357819
O	5.339742	3.217504	-7.498134
O	7.491122	3.217504	-5.343755
O	7.491122	1.063125	-7.498134
