112

Co	0.000000	0.000000	0.000000
Co	2.094351	-2.094513	-2.094513
Mg	-1.047176	-1.047257	-3.141770
Mg	3.141527	1.047257	-1.047257
Mg	5.235878	-1.047257	-1.047257
Mg	1.047176	1.047257	-3.141770
O	3.151397	-1.037093	-1.037093
O	-1.037305	1.037093	-3.151934
O	1.037305	-1.037093	-3.151934
O	1.057046	1.057421	-1.057421
O	5.226007	1.037093	-1.037093
O	1.057046	3.131606	-3.131606
O	3.131656	3.131606	-1.057421
O	3.131656	1.057421	-3.131606
Co	4.188702	4.189026	0.000000
Co	6.283054	2.094513	-2.094513
Mg	3.141527	3.141770	-3.141770
Mg	7.330229	5.236283	-1.047257
Mg	9.424580	3.141770	-1.047257
Mg	5.235878	5.236283	-3.141770
O	7.340100	3.151934	-1.037093
O	3.151397	5.226119	-3.151934
O	5.226007	3.151934	-3.151934
O	5.245749	5.246447	-1.057421
O	9.414710	5.226119	-1.037093
O	5.245749	7.320632	-3.131606
O	7.320359	7.320632	-1.057421
O	7.320359	5.246447	-3.131606
Co	-4.188702	0.000000	-4.189026
Co	-2.094351	-2.094513	-6.283540
Mg	-5.235878	-1.047257	-7.330796
Mg	-1.047176	1.047257	-5.236283
Mg	1.047176	-1.047257	-5.236283
Mg	-3.141527	1.047257	-7.330796
O	-1.037305	-1.037093	-5.226119
O	-5.226007	1.037093	-7.340960
O	-3.151397	-1.037093	-7.340960
O	-3.131656	1.057421	-5.246447
O	1.037305	1.037093	-5.226119
O	-3.131656	3.131606	-7.320632
O	-1.057046	3.131606	-5.246447
O	-1.057046	1.057421	-7.320632
Co	0.000000	4.189026	-4.189026
Co	2.094351	2.094513	-6.283540
Mg	-1.047176	3.141770	-7.330796
Mg	3.141527	5.236283	-5.236283
Mg	5.235878	3.141770	-5.236283
Mg	1.047176	5.236283	-7.330796
O	3.151397	3.151934	-5.226119
O	-1.037305	5.226119	-7.340960
O	1.037305	3.151934	-7.340960
O	1.057046	5.246447	-5.246447
O	5.226007	5.226119	-5.226119
O	1.057046	7.320632	-7.320632
O	3.131656	7.320632	-5.246447
O	3.131656	5.246447	-7.320632
Co	4.188702	-4.189026	0.000000
Co	6.283054	-6.283540	-2.094513
Mg	3.141527	-5.236283	-3.141770
Mg	7.330229	-3.141770	-1.047257
Mg	9.424580	-5.236283	-1.047257
Mg	5.235878	-3.141770	-3.141770
O	7.340100	-5.226119	-1.037093
O	3.151397	-3.151934	-3.151934
O	5.226007	-5.226119	-3.151934
O	5.245749	-3.131606	-1.057421
O	9.414710	-3.151934	-1.037093
O	5.245749	-1.057421	-3.131606
O	7.320359	-1.057421	-1.057421
O	7.320359	-3.131606	-3.131606
Co	8.377405	0.000000	0.000000
Co	10.471756	-2.094513	-2.094513
Mg	7.330229	-1.047257	-3.141770
Mg	11.518932	1.047257	-1.047257
Mg	13.613283	-1.047257	-1.047257
Mg	9.424580	1.047257	-3.141770
O	11.528802	-1.037093	-1.037093
O	7.340100	1.037093	-3.151934
O	9.414710	-1.037093	-3.151934
O	9.434451	1.057421	-1.057421
O	13.603412	1.037093	-1.037093
O	9.434451	3.131606	-3.131606
O	11.509061	3.131606	-1.057421
O	11.509061	1.057421	-3.131606
Co	0.000000	-4.189026	-4.189026
Co	2.094351	-6.283540	-6.283540
Mg	-1.047176	-5.236283	-7.330796
Mg	3.141527	-3.141770	-5.236283
Mg	5.235878	-5.236283	-5.236283
Mg	1.047176	-3.141770	-7.330796
O	3.151397	-5.226119	-5.226119
O	-1.037305	-3.151934	-7.340960
O	1.037305	-5.226119	-7.340960
O	1.057046	-3.131606	-5.246447
O	5.226007	-3.151934	-5.226119
O	1.057046	-1.057421	-7.320632
O	3.131656	-1.057421	-5.246447
O	3.131656	-3.131606	-7.320632
Co	4.188702	0.000000	-4.189026
Co	6.283054	-2.094513	-6.283540
Mg	3.141527	-1.047257	-7.330796
Mg	7.330229	1.047257	-5.236283
Mg	9.424580	-1.047257	-5.236283
Mg	5.235878	1.047257	-7.330796
O	7.340100	-1.037093	-5.226119
O	3.151397	1.037093	-7.340960
O	5.226007	-1.037093	-7.340960
O	5.245749	1.057421	-5.246447
O	9.414710	1.037093	-5.226119
O	5.245749	3.131606	-7.320632
O	7.320359	3.131606	-5.246447
O	7.320359	1.057421	-7.320632
