112

Co	0.000000	0.000000	0.000000
Co	2.075560	-2.075701	-2.075701
Mg	-1.037785	-1.037855	-3.113556
Mg	5.188904	-1.037855	-1.037855
Mg	1.037785	1.037855	-3.113556
Mg	3.113344	1.037855	-1.037855
O	-1.025771	1.025635	-3.125767
O	3.125348	-1.025635	-1.025635
O	1.025771	-1.025635	-3.125767
O	1.049789	1.050066	-1.050066
O	5.176900	1.025635	-1.025635
O	1.049789	3.101345	-3.101345
O	3.101340	3.101345	-1.050066
O	3.101340	1.050066	-3.101345
Co	4.151122	4.151408	0.000000
Co	6.226681	2.075707	-2.075701
Mg	3.113337	3.113552	-3.113556
Mg	9.340025	3.113552	-1.037855
Mg	5.188906	5.189263	-3.113556
Mg	7.264466	5.189263	-1.037855
O	3.125351	5.177043	-3.125767
O	7.276470	3.125773	-1.025635
O	5.176892	3.125773	-3.125767
O	5.200910	5.201474	-1.050066
O	9.328021	5.177043	-1.025635
O	5.200910	7.252753	-3.101345
O	7.252462	7.252753	-1.050066
O	7.252462	5.201474	-3.101345
Co	-4.151122	0.000000	-4.151408
Co	-2.075562	-2.075701	-6.227108
Mg	-5.188906	-1.037855	-7.264964
Mg	1.037782	-1.037855	-5.189263
Mg	-3.113337	1.037855	-7.264964
Mg	-1.037777	1.037855	-5.189263
O	-5.176892	1.025635	-7.277174
O	-1.025773	-1.025635	-5.177043
O	-3.125351	-1.025635	-7.277174
O	-3.101333	1.050066	-5.201474
O	1.025778	1.025635	-5.177043
O	-3.101333	3.101345	-7.252753
O	-1.049781	3.101345	-5.201474
O	-1.049781	1.050066	-7.252753
Co	0.000000	4.151408	-4.151408
Co	2.075560	2.075707	-6.227108
Mg	-1.037785	3.113552	-7.264964
Mg	5.188904	3.113552	-5.189263
Mg	1.037785	5.189263	-7.264964
Mg	3.113344	5.189263	-5.189263
O	-1.025771	5.177043	-7.277174
O	3.125348	3.125773	-5.177043
O	1.025771	3.125773	-7.277174
O	1.049789	5.201474	-5.201474
O	5.176900	5.177043	-5.177043
O	1.049789	7.252753	-7.252753
O	3.101340	7.252753	-5.201474
O	3.101340	5.201474	-7.252753
Co	4.151122	-4.151408	0.000000
Co	6.226681	-6.227108	-2.075701
Mg	3.113337	-5.189263	-3.113556
Mg	9.340025	-5.189263	-1.037855
Mg	5.188906	-3.113552	-3.113556
Mg	7.264466	-3.113552	-1.037855
O	3.125351	-3.125773	-3.125767
O	7.276470	-5.177043	-1.025635
O	5.176892	-5.177042	-3.125767
O	5.200910	-3.101342	-1.050066
O	9.328021	-3.125773	-1.025635
O	5.200910	-1.050062	-3.101345
O	7.252462	-1.050062	-1.050066
O	7.252462	-3.101342	-3.101345
Co	8.302243	0.000000	0.000000
Co	10.377803	-2.075701	-2.075701
Mg	7.264458	-1.037855	-3.113556
Mg	13.491147	-1.037855	-1.037855
Mg	9.340028	1.037855	-3.113556
Mg	11.415587	1.037855	-1.037855
O	7.276472	1.025635	-3.125767
O	11.427591	-1.025635	-1.025635
O	9.328014	-1.025635	-3.125767
O	9.352032	1.050066	-1.050066
O	13.479143	1.025635	-1.025635
O	9.352032	3.101345	-3.101345
O	11.403583	3.101345	-1.050066
O	11.403583	1.050066	-3.101345
Co	0.000000	-4.151408	-4.151408
Co	2.075560	-6.227108	-6.227108
Mg	-1.037785	-5.189263	-7.264964
Mg	5.188904	-5.189263	-5.189263
Mg	1.037785	-3.113552	-7.264964
Mg	3.113344	-3.113552	-5.189263
O	-1.025771	-3.125773	-7.277174
O	3.125348	-5.177043	-5.177043
O	1.025771	-5.177042	-7.277174
O	1.049789	-3.101342	-5.201474
O	5.176900	-3.125773	-5.177043
O	1.049789	-1.050062	-7.252753
O	3.101340	-1.050062	-5.201474
O	3.101340	-3.101342	-7.252753
Co	4.151122	0.000000	-4.151408
Co	6.226681	-2.075701	-6.227108
Mg	3.113337	-1.037855	-7.264964
Mg	9.340025	-1.037855	-5.189263
Mg	5.188906	1.037855	-7.264964
Mg	7.264466	1.037855	-5.189263
O	3.125351	1.025635	-7.277174
O	7.276470	-1.025635	-5.177043
O	5.176892	-1.025635	-7.277174
O	5.200910	1.050066	-5.201474
O	9.328021	1.025635	-5.177043
O	5.200910	3.101345	-7.252753
O	7.252462	3.101345	-5.201474
O	7.252462	1.050066	-7.252753
