40

F	0.000000	1.939065	1.939065
F	1.939065	0.000000	1.939065
F	1.939065	1.939065	0.000000
Mn	0.000000	0.000000	0.000000
O	1.939065	1.939065	1.939065
F	0.000000	1.939065	5.817194
F	1.939065	0.000000	5.817194
F	1.939065	1.939065	3.878130
Mn	0.000000	0.000000	3.878130
O	1.939065	1.939065	5.817194
F	0.000000	5.817194	1.939065
F	1.939065	3.878130	1.939065
F	1.939065	5.817194	0.000000
Mn	0.000000	3.878130	0.000000
O	1.939065	5.817194	1.939065
F	0.000000	5.817194	5.817194
F	1.939065	3.878130	5.817194
F	1.939065	5.817194	3.878130
Mn	0.000000	3.878130	3.878130
O	1.939065	5.817194	5.817194
F	3.878130	1.939065	1.939065
F	5.817194	0.000000	1.939065
F	5.817194	1.939065	0.000000
Mn	3.878130	0.000000	0.000000
O	5.817194	1.939065	1.939065
F	3.878130	1.939065	5.817194
F	5.817194	0.000000	5.817194
F	5.817194	1.939065	3.878130
Mn	3.878130	0.000000	3.878130
O	5.817194	1.939065	5.817194
F	3.878130	5.817194	1.939065
F	5.817194	3.878130	1.939065
F	5.817194	5.817194	0.000000
Mn	3.878130	3.878130	0.000000
O	5.817194	5.817194	1.939065
F	3.878130	5.817194	5.817194
F	5.817194	3.878130	5.817194
F	5.817194	5.817194	3.878130
Mn	3.878130	3.878130	3.878130
O	5.817194	5.817194	5.817194
