112

Cu	0.000000	0.000000	0.000000
Cu	2.301136	-2.301527	-2.301527
O	3.451087	-1.150918	-1.150918
O	-1.151176	1.150918	-3.452135
O	1.151176	-1.150918	-3.452135
O	1.149961	1.150608	-1.150608
O	5.753449	1.150918	-1.150918
O	1.149961	3.452445	-3.452445
O	3.452312	3.452445	-1.150608
O	3.452312	1.150608	-3.452445
Tl	-1.150563	-1.150758	-3.452285
Tl	1.150563	1.150758	-3.452285
Tl	3.451700	1.150758	-1.150758
Tl	5.752836	-1.150758	-1.150758
Cu	4.602267	4.603053	0.000000
Cu	6.903403	2.301526	-2.301527
O	8.053354	3.452135	-1.150918
O	3.451091	5.753971	-3.452135
O	5.753442	3.452135	-3.452135
O	5.752227	5.753661	-1.150608
O	10.355715	5.753971	-1.150918
O	5.752227	8.055498	-3.452445
O	8.054579	8.055498	-1.150608
O	8.054579	5.753661	-3.452445
Tl	3.451703	3.452294	-3.452285
Tl	5.752830	5.753811	-3.452285
Tl	8.053966	5.753811	-1.150758
Tl	10.355103	3.452294	-1.150758
Cu	-4.602267	0.000000	-4.603053
Cu	-2.301130	-2.301527	-6.904579
O	-1.151179	-1.150918	-5.753971
O	-5.753442	1.150918	-8.055188
O	-3.451091	-1.150918	-8.055188
O	-3.452306	1.150608	-5.753661
O	1.151182	1.150918	-5.753971
O	-3.452306	3.452445	-8.055498
O	-1.149955	3.452445	-5.753661
O	-1.149954	1.150608	-8.055498
Tl	-5.752830	-1.150758	-8.055338
Tl	-3.451703	1.150758	-8.055338
Tl	-1.150567	1.150758	-5.753811
Tl	1.150569	-1.150758	-5.753811
Cu	0.000000	4.603053	-4.603053
Cu	2.301136	2.301526	-6.904579
O	3.451087	3.452135	-5.753971
O	-1.151176	5.753971	-8.055188
O	1.151176	3.452135	-8.055188
O	1.149961	5.753661	-5.753661
O	5.753449	5.753971	-5.753971
O	1.149961	8.055498	-8.055498
O	3.452312	8.055498	-5.753661
O	3.452312	5.753661	-8.055498
Tl	-1.150563	3.452294	-8.055338
Tl	1.150563	5.753811	-8.055338
Tl	3.451700	5.753811	-5.753811
Tl	5.752836	3.452294	-5.753811
Cu	4.602267	-4.603053	0.000000
Cu	6.903403	-6.904579	-2.301527
O	8.053354	-5.753971	-1.150918
O	3.451091	-3.452134	-3.452135
O	5.753442	-5.753971	-3.452135
O	5.752227	-3.452444	-1.150608
O	10.355715	-3.452134	-1.150918
O	5.752227	-1.150608	-3.452445
O	8.054579	-1.150608	-1.150608
O	8.054579	-3.452444	-3.452445
Tl	3.451703	-5.753811	-3.452285
Tl	5.752830	-3.452294	-3.452285
Tl	8.053966	-3.452294	-1.150758
Tl	10.355103	-5.753811	-1.150758
Cu	9.204533	0.000000	0.000000
Cu	11.505670	-2.301527	-2.301527
O	12.655621	-1.150918	-1.150918
O	8.053358	1.150918	-3.452135
O	10.355709	-1.150918	-3.452135
O	10.354494	1.150608	-1.150608
O	14.957982	1.150918	-1.150918
O	10.354494	3.452445	-3.452445
O	12.656845	3.452445	-1.150608
O	12.656845	1.150608	-3.452445
Tl	8.053970	-1.150758	-3.452285
Tl	10.355097	1.150758	-3.452285
Tl	12.656233	1.150758	-1.150758
Tl	14.957369	-1.150758	-1.150758
Cu	0.000000	-4.603053	-4.603053
Cu	2.301136	-6.904579	-6.904579
O	3.451087	-5.753971	-5.753971
O	-1.151176	-3.452134	-8.055188
O	1.151176	-5.753971	-8.055188
O	1.149961	-3.452444	-5.753661
O	5.753449	-3.452134	-5.753971
O	1.149961	-1.150608	-8.055498
O	3.452312	-1.150608	-5.753661
O	3.452312	-3.452444	-8.055498
Tl	-1.150563	-5.753811	-8.055338
Tl	1.150563	-3.452294	-8.055338
Tl	3.451700	-3.452294	-5.753811
Tl	5.752836	-5.753811	-5.753811
Cu	4.602267	0.000000	-4.603053
Cu	6.903403	-2.301527	-6.904579
O	8.053354	-1.150918	-5.753971
O	3.451091	1.150918	-8.055188
O	5.753442	-1.150918	-8.055188
O	5.752227	1.150608	-5.753661
O	10.355715	1.150918	-5.753971
O	5.752227	3.452445	-8.055498
O	8.054579	3.452445	-5.753661
O	8.054579	1.150608	-8.055498
Tl	3.451703	-1.150758	-8.055338
Tl	5.752830	1.150758	-8.055338
Tl	8.053966	1.150758	-5.753811
Tl	10.355103	-1.150758	-5.753811
