40

Hf	0.000000	0.000000	0.000000
O	0.000000	2.132398	2.132398
O	2.132398	0.000000	2.132398
O	2.132398	2.132398	0.000000
Pb	2.132398	2.132398	2.132398
Hf	0.000000	0.000000	4.264796
O	0.000000	2.132398	6.397193
O	2.132398	0.000000	6.397193
O	2.132398	2.132398	4.264796
Pb	2.132398	2.132398	6.397193
Hf	0.000000	4.264796	0.000000
O	0.000000	6.397193	2.132398
O	2.132398	4.264796	2.132398
O	2.132398	6.397193	0.000000
Pb	2.132398	6.397193	2.132398
Hf	0.000000	4.264796	4.264796
O	0.000000	6.397193	6.397193
O	2.132398	4.264796	6.397193
O	2.132398	6.397193	4.264796
Pb	2.132398	6.397193	6.397193
Hf	4.264796	0.000000	0.000000
O	4.264796	2.132398	2.132398
O	6.397193	0.000000	2.132398
O	6.397193	2.132398	0.000000
Pb	6.397193	2.132398	2.132398
Hf	4.264796	0.000000	4.264796
O	4.264796	2.132398	6.397193
O	6.397193	0.000000	6.397193
O	6.397193	2.132398	4.264796
Pb	6.397193	2.132398	6.397193
Hf	4.264796	4.264796	0.000000
O	4.264796	6.397193	2.132398
O	6.397193	4.264796	2.132398
O	6.397193	6.397193	0.000000
Pb	6.397193	6.397193	2.132398
Hf	4.264796	4.264796	4.264796
O	4.264796	6.397193	6.397193
O	6.397193	4.264796	6.397193
O	6.397193	6.397193	4.264796
Pb	6.397193	6.397193	6.397193
