112

Cd	0.000000	0.000000	0.000000
Cd	2.511475	-2.512059	-2.512059
La	-1.255738	-1.256029	-3.768088
La	3.767213	1.256029	-1.256029
La	6.278688	-1.256029	-1.256029
La	1.255738	1.256029	-3.768088
O	3.856682	-1.165965	-1.165965
O	-1.166269	1.165965	-3.858153
O	1.166269	-1.165965	-3.858153
O	1.345207	1.346094	-1.346094
O	6.189219	1.165965	-1.165965
O	1.345207	3.678024	-3.678024
O	3.677744	3.678024	-1.346094
O	3.677744	1.346094	-3.678024
Cd	5.022951	5.024118	0.000000
Cd	7.534426	2.512059	-2.512059
La	3.767213	3.768088	-3.768088
La	8.790163	6.280147	-1.256029
La	11.301639	3.768088	-1.256029
La	6.278688	6.280147	-3.768088
O	8.879632	3.858153	-1.165965
O	3.856682	6.190082	-3.858153
O	6.189219	3.858153	-3.858153
O	6.368157	6.370212	-1.346094
O	11.212170	6.190082	-1.165965
O	6.368157	8.702141	-3.678024
O	8.700695	8.702141	-1.346094
O	8.700695	6.370212	-3.678024
Cd	-5.022951	0.000000	-5.024118
Cd	-2.511475	-2.512059	-7.536177
La	-6.278688	-1.256029	-8.792206
La	-1.255738	1.256029	-6.280147
La	1.255738	-1.256029	-6.280147
La	-3.767213	1.256029	-8.792206
O	-1.166269	-1.165965	-6.190082
O	-6.189219	1.165965	-8.882271
O	-3.856682	-1.165965	-8.882271
O	-3.677744	1.346094	-6.370212
O	1.166269	1.165965	-6.190082
O	-3.677744	3.678024	-8.702141
O	-1.345207	3.678024	-6.370212
O	-1.345207	1.346094	-8.702141
Cd	0.000000	5.024118	-5.024118
Cd	2.511475	2.512059	-7.536177
La	-1.255738	3.768088	-8.792206
La	3.767213	6.280147	-6.280147
La	6.278688	3.768088	-6.280147
La	1.255738	6.280147	-8.792206
O	3.856682	3.858153	-6.190082
O	-1.166269	6.190082	-8.882271
O	1.166269	3.858153	-8.882271
O	1.345207	6.370212	-6.370212
O	6.189219	6.190082	-6.190082
O	1.345207	8.702141	-8.702141
O	3.677744	8.702141	-6.370212
O	3.677744	6.370212	-8.702141
Cd	5.022951	-5.024118	0.000000
Cd	7.534426	-7.536177	-2.512059
La	3.767213	-6.280147	-3.768088
La	8.790163	-3.768088	-1.256029
La	11.301639	-6.280147	-1.256029
La	6.278688	-3.768088	-3.768088
O	8.879632	-6.190082	-1.165965
O	3.856682	-3.858153	-3.858153
O	6.189219	-6.190082	-3.858153
O	6.368157	-3.678024	-1.346094
O	11.212170	-3.858153	-1.165965
O	6.368157	-1.346094	-3.678024
O	8.700695	-1.346094	-1.346094
O	8.700695	-3.678024	-3.678024
Cd	10.045901	0.000000	0.000000
Cd	12.557376	-2.512059	-2.512059
La	8.790163	-1.256029	-3.768088
La	13.813114	1.256029	-1.256029
La	16.324589	-1.256029	-1.256029
La	11.301639	1.256029	-3.768088
O	13.902583	-1.165965	-1.165965
O	8.879632	1.165965	-3.858153
O	11.212170	-1.165965	-3.858153
O	11.391108	1.346094	-1.346094
O	16.235120	1.165965	-1.165965
O	11.391108	3.678024	-3.678024
O	13.723645	3.678024	-1.346094
O	13.723645	1.346094	-3.678024
Cd	0.000000	-5.024118	-5.024118
Cd	2.511475	-7.536177	-7.536177
La	-1.255738	-6.280147	-8.792206
La	3.767213	-3.768088	-6.280147
La	6.278688	-6.280147	-6.280147
La	1.255738	-3.768088	-8.792206
O	3.856682	-6.190082	-6.190082
O	-1.166269	-3.858153	-8.882271
O	1.166269	-6.190082	-8.882271
O	1.345207	-3.678024	-6.370212
O	6.189219	-3.858153	-6.190082
O	1.345207	-1.346094	-8.702141
O	3.677744	-1.346094	-6.370212
O	3.677744	-3.678024	-8.702141
Cd	5.022951	0.000000	-5.024118
Cd	7.534426	-2.512059	-7.536177
La	3.767213	-1.256029	-8.792206
La	8.790163	1.256029	-6.280147
La	11.301639	-1.256029	-6.280147
La	6.278688	1.256029	-8.792206
O	8.879632	-1.165965	-6.190082
O	3.856682	1.165965	-8.882271
O	6.189219	-1.165965	-8.882271
O	6.368157	1.346094	-6.370212
O	11.212170	1.165965	-6.190082
O	6.368157	3.678024	-8.702141
O	8.700695	3.678024	-6.370212
O	8.700695	1.346094	-8.702141
