112

As	0.000000	0.000000	0.000000
As	2.211458	-2.212558	-2.212558
O	3.385059	-1.037218	-1.037218
O	-1.037857	1.037218	-3.387898
O	1.037857	-1.037218	-3.387898
O	1.173601	1.175340	-1.175340
O	5.460774	1.037218	-1.037218
O	1.173601	3.249777	-3.249777
O	3.249315	3.249777	-1.175340
O	3.249315	1.175340	-3.249777
W	-1.105729	-1.106279	-3.318838
W	3.317187	1.106279	-1.106279
W	5.528645	-1.106279	-1.106279
W	1.105729	1.106279	-3.318838
As	4.422916	4.425117	0.000000
As	6.634374	2.212558	-2.212558
O	7.807975	3.387898	-1.037218
O	3.385059	5.462335	-3.387898
O	5.460774	3.387898	-3.387898
O	5.596517	5.600457	-1.175340
O	9.883690	5.462335	-1.037218
O	5.596517	7.674893	-3.249777
O	7.672232	7.674893	-1.175340
O	7.672232	5.600457	-3.249777
W	3.317187	3.318838	-3.318838
W	7.740103	5.531396	-1.106279
W	9.951562	3.318838	-1.106279
W	5.528645	5.531396	-3.318838
As	-4.422916	0.000000	-4.425117
As	-2.211458	-2.212558	-6.637675
O	-1.037857	-1.037218	-5.462335
O	-5.460774	1.037218	-7.813015
O	-3.385059	-1.037218	-7.813015
O	-3.249315	1.175340	-5.600457
O	1.037857	1.037218	-5.462335
O	-3.249315	3.249777	-7.674893
O	-1.173601	3.249777	-5.600457
O	-1.173601	1.175340	-7.674893
W	-5.528645	-1.106279	-7.743954
W	-1.105729	1.106279	-5.531396
W	1.105729	-1.106279	-5.531396
W	-3.317187	1.106279	-7.743954
As	0.000000	4.425117	-4.425117
As	2.211458	2.212558	-6.637675
O	3.385059	3.387898	-5.462335
O	-1.037857	5.462335	-7.813015
O	1.037857	3.387898	-7.813015
O	1.173601	5.600457	-5.600457
O	5.460774	5.462335	-5.462335
O	1.173601	7.674893	-7.674893
O	3.249315	7.674893	-5.600457
O	3.249315	5.600457	-7.674893
W	-1.105729	3.318838	-7.743954
W	3.317187	5.531396	-5.531396
W	5.528645	3.318838	-5.531396
W	1.105729	5.531396	-7.743954
As	4.422916	-4.425117	0.000000
As	6.634374	-6.637675	-2.212558
O	7.807975	-5.462335	-1.037218
O	3.385059	-3.387898	-3.387898
O	5.460774	-5.462335	-3.387898
O	5.596517	-3.249777	-1.175340
O	9.883690	-3.387898	-1.037218
O	5.596517	-1.175340	-3.249777
O	7.672232	-1.175340	-1.175340
O	7.672232	-3.249777	-3.249777
W	3.317187	-5.531396	-3.318838
W	7.740103	-3.318838	-1.106279
W	9.951562	-5.531396	-1.106279
W	5.528645	-3.318838	-3.318838
As	8.845832	0.000000	0.000000
As	11.057291	-2.212558	-2.212558
O	12.230891	-1.037218	-1.037218
O	7.807975	1.037218	-3.387898
O	9.883690	-1.037218	-3.387898
O	10.019433	1.175340	-1.175340
O	14.306606	1.037218	-1.037218
O	10.019433	3.249777	-3.249777
O	12.095148	3.249777	-1.175340
O	12.095148	1.175340	-3.249777
W	7.740103	-1.106279	-3.318838
W	12.163020	1.106279	-1.106279
W	14.374478	-1.106279	-1.106279
W	9.951562	1.106279	-3.318838
As	0.000000	-4.425117	-4.425117
As	2.211458	-6.637675	-6.637675
O	3.385059	-5.462335	-5.462335
O	-1.037857	-3.387898	-7.813015
O	1.037857	-5.462335	-7.813015
O	1.173601	-3.249777	-5.600457
O	5.460774	-3.387898	-5.462335
O	1.173601	-1.175340	-7.674893
O	3.249315	-1.175340	-5.600457
O	3.249315	-3.249777	-7.674893
W	-1.105729	-5.531396	-7.743954
W	3.317187	-3.318838	-5.531396
W	5.528645	-5.531396	-5.531396
W	1.105729	-3.318838	-7.743954
As	4.422916	0.000000	-4.425117
As	6.634374	-2.212558	-6.637675
O	7.807975	-1.037218	-5.462335
O	3.385059	1.037218	-7.813015
O	5.460774	-1.037218	-7.813015
O	5.596517	1.175340	-5.600457
O	9.883690	1.037218	-5.462335
O	5.596517	3.249777	-7.674893
O	7.672232	3.249777	-5.600457
O	7.672232	1.175340	-7.674893
W	3.317187	-1.106279	-7.743954
W	7.740103	1.106279	-5.531396
W	9.951562	-1.106279	-5.531396
W	5.528645	1.106279	-7.743954
