40

O	0.000000	2.006284	2.006284
O	2.006284	0.000000	2.006284
O	2.006284	2.006284	0.000000
Pt	0.000000	0.000000	0.000000
Sb	2.006284	2.006284	2.006284
O	0.000000	2.006284	6.018852
O	2.006284	0.000000	6.018852
O	2.006284	2.006284	4.012568
Pt	0.000000	0.000000	4.012568
Sb	2.006284	2.006284	6.018852
O	0.000000	6.018852	2.006284
O	2.006284	4.012568	2.006284
O	2.006284	6.018852	0.000000
Pt	0.000000	4.012568	0.000000
Sb	2.006284	6.018852	2.006284
O	0.000000	6.018852	6.018852
O	2.006284	4.012568	6.018852
O	2.006284	6.018852	4.012568
Pt	0.000000	4.012568	4.012568
Sb	2.006284	6.018852	6.018852
O	4.012568	2.006284	2.006284
O	6.018852	0.000000	2.006284
O	6.018852	2.006284	0.000000
Pt	4.012568	0.000000	0.000000
Sb	6.018852	2.006284	2.006284
O	4.012568	2.006284	6.018852
O	6.018852	0.000000	6.018852
O	6.018852	2.006284	4.012568
Pt	4.012568	0.000000	4.012568
Sb	6.018852	2.006284	6.018852
O	4.012568	6.018852	2.006284
O	6.018852	4.012568	2.006284
O	6.018852	6.018852	0.000000
Pt	4.012568	4.012568	0.000000
Sb	6.018852	6.018852	2.006284
O	4.012568	6.018852	6.018852
O	6.018852	4.012568	6.018852
O	6.018852	6.018852	4.012568
Pt	4.012568	4.012568	4.012568
Sb	6.018852	6.018852	6.018852
