40

Ag	0.000000	0.000000	0.000000
Mg	1.996930	1.996930	1.996930
O	0.000000	1.996930	1.996930
O	1.996930	0.000000	1.996930
O	1.996930	1.996930	0.000000
Ag	0.000000	0.000000	3.993861
Mg	1.996930	1.996930	5.990791
O	0.000000	1.996930	5.990791
O	1.996930	0.000000	5.990791
O	1.996930	1.996930	3.993861
Ag	0.000000	3.993861	0.000000
Mg	1.996930	5.990791	1.996930
O	0.000000	5.990791	1.996930
O	1.996930	3.993861	1.996930
O	1.996930	5.990791	0.000000
Ag	0.000000	3.993861	3.993861
Mg	1.996930	5.990791	5.990791
O	0.000000	5.990791	5.990791
O	1.996930	3.993861	5.990791
O	1.996930	5.990791	3.993861
Ag	3.993861	0.000000	0.000000
Mg	5.990791	1.996930	1.996930
O	3.993861	1.996930	1.996930
O	5.990791	0.000000	1.996930
O	5.990791	1.996930	0.000000
Ag	3.993861	0.000000	3.993861
Mg	5.990791	1.996930	5.990791
O	3.993861	1.996930	5.990791
O	5.990791	0.000000	5.990791
O	5.990791	1.996930	3.993861
Ag	3.993861	3.993861	0.000000
Mg	5.990791	5.990791	1.996930
O	3.993861	5.990791	1.996930
O	5.990791	3.993861	1.996930
O	5.990791	5.990791	0.000000
Ag	3.993861	3.993861	3.993861
Mg	5.990791	5.990791	5.990791
O	3.993861	5.990791	5.990791
O	5.990791	3.993861	5.990791
O	5.990791	5.990791	3.993861
