112

Co	0.000000	0.000000	0.000000
Co	2.304835	-2.302812	-2.302812
Eu	-1.152423	-1.151411	-3.454223
Eu	5.762093	-1.151411	-1.151411
Eu	1.152423	1.151411	-3.454223
Eu	3.457258	1.151411	-1.151411
O	1.059842	1.055783	-1.055783
O	1.244993	-1.247030	-3.358605
O	3.364677	-1.247030	-1.247030
O	-1.244993	1.247030	-3.358605
O	3.549838	3.549842	-1.055783
O	3.549838	1.055783	-3.549842
O	1.059842	3.549842	-3.549842
O	5.854673	1.247030	-1.247030
Co	4.609675	4.605630	0.000000
Co	6.914510	2.302818	-2.302812
Eu	3.457252	3.454219	-3.454223
Eu	10.371768	3.454219	-1.151411
Eu	5.762097	5.757041	-3.454223
Eu	8.066933	5.757041	-1.151411
O	5.669517	5.661413	-1.055783
O	5.854668	3.358601	-3.358605
O	7.974352	3.358601	-1.247030
O	3.364682	5.852660	-3.358605
O	8.159513	8.155472	-1.055783
O	8.159513	5.661413	-3.549842
O	5.669517	8.155472	-3.549842
O	10.464348	5.852660	-1.247030
Co	-4.609675	0.000000	-4.605630
Co	-2.304840	-2.302812	-6.908442
Eu	-5.762097	-1.151411	-8.059853
Eu	1.152418	-1.151411	-5.757041
Eu	-3.457252	1.151411	-8.059853
Eu	-1.152417	1.151411	-5.757041
O	-3.549833	1.055783	-5.661413
O	-3.364682	-1.247030	-7.964235
O	-1.244998	-1.247030	-5.852660
O	-5.854668	1.247030	-7.964235
O	-1.059837	3.549842	-5.661413
O	-1.059837	1.055783	-8.155472
O	-3.549833	3.549842	-8.155472
O	1.244999	1.247030	-5.852660
Co	0.000000	4.605630	-4.605630
Co	2.304835	2.302818	-6.908442
Eu	-1.152423	3.454219	-8.059853
Eu	5.762093	3.454219	-5.757041
Eu	1.152423	5.757041	-8.059853
Eu	3.457258	5.757041	-5.757041
O	1.059842	5.661413	-5.661413
O	1.244993	3.358601	-7.964235
O	3.364677	3.358601	-5.852660
O	-1.244993	5.852660	-7.964235
O	3.549838	8.155472	-5.661413
O	3.549838	5.661413	-8.155472
O	1.059842	8.155472	-8.155472
O	5.854673	5.852660	-5.852660
Co	4.609675	-4.605630	0.000000
Co	6.914510	-6.908442	-2.302812
Eu	3.457252	-5.757041	-3.454223
Eu	10.371768	-5.757041	-1.151411
Eu	5.762097	-3.454219	-3.454223
Eu	8.066933	-3.454219	-1.151411
O	5.669517	-3.549848	-1.055783
O	5.854668	-5.852660	-3.358605
O	7.974352	-5.852660	-1.247030
O	3.364682	-3.358601	-3.358605
O	8.159513	-1.055788	-1.055783
O	8.159513	-3.549848	-3.549842
O	5.669517	-1.055788	-3.549842
O	10.464348	-3.358601	-1.247030
Co	9.219350	0.000000	0.000000
Co	11.524185	-2.302812	-2.302812
Eu	8.066927	-1.151411	-3.454223
Eu	14.981443	-1.151411	-1.151411
Eu	10.371772	1.151411	-3.454223
Eu	12.676607	1.151411	-1.151411
O	10.279192	1.055783	-1.055783
O	10.464343	-1.247030	-3.358605
O	12.584027	-1.247030	-1.247030
O	7.974357	1.247030	-3.358605
O	12.769188	3.549842	-1.055783
O	12.769188	1.055783	-3.549842
O	10.279192	3.549842	-3.549842
O	15.074023	1.247030	-1.247030
Co	0.000000	-4.605630	-4.605630
Co	2.304835	-6.908442	-6.908442
Eu	-1.152423	-5.757041	-8.059853
Eu	5.762093	-5.757041	-5.757041
Eu	1.152423	-3.454219	-8.059853
Eu	3.457258	-3.454219	-5.757041
O	1.059842	-3.549848	-5.661413
O	1.244993	-5.852660	-7.964235
O	3.364677	-5.852660	-5.852660
O	-1.244993	-3.358601	-7.964235
O	3.549838	-1.055788	-5.661413
O	3.549838	-3.549848	-8.155472
O	1.059842	-1.055788	-8.155472
O	5.854673	-3.358601	-5.852660
Co	4.609675	0.000000	-4.605630
Co	6.914510	-2.302812	-6.908442
Eu	3.457252	-1.151411	-8.059853
Eu	10.371768	-1.151411	-5.757041
Eu	5.762097	1.151411	-8.059853
Eu	8.066933	1.151411	-5.757041
O	5.669517	1.055783	-5.661413
O	5.854668	-1.247030	-7.964235
O	7.974352	-1.247030	-5.852660
O	3.364682	1.247030	-7.964235
O	8.159513	3.549842	-5.661413
O	8.159513	1.055783	-8.155472
O	5.669517	3.549842	-8.155472
O	10.464348	1.247030	-5.852660
