40

Ag	2.007034	2.007034	2.007034
O	0.000000	2.007034	2.007034
O	2.007034	0.000000	2.007034
O	2.007034	2.007034	0.000000
Ru	0.000000	0.000000	0.000000
Ag	2.007034	2.007034	6.021102
O	0.000000	2.007034	6.021102
O	2.007034	0.000000	6.021102
O	2.007034	2.007034	4.014068
Ru	0.000000	0.000000	4.014068
Ag	2.007034	6.021102	2.007034
O	0.000000	6.021102	2.007034
O	2.007034	4.014068	2.007034
O	2.007034	6.021102	0.000000
Ru	0.000000	4.014068	0.000000
Ag	2.007034	6.021102	6.021102
O	0.000000	6.021102	6.021102
O	2.007034	4.014068	6.021102
O	2.007034	6.021102	4.014068
Ru	0.000000	4.014068	4.014068
Ag	6.021102	2.007034	2.007034
O	4.014068	2.007034	2.007034
O	6.021102	0.000000	2.007034
O	6.021102	2.007034	0.000000
Ru	4.014068	0.000000	0.000000
Ag	6.021102	2.007034	6.021102
O	4.014068	2.007034	6.021102
O	6.021102	0.000000	6.021102
O	6.021102	2.007034	4.014068
Ru	4.014068	0.000000	4.014068
Ag	6.021102	6.021102	2.007034
O	4.014068	6.021102	2.007034
O	6.021102	4.014068	2.007034
O	6.021102	6.021102	0.000000
Ru	4.014068	4.014068	0.000000
Ag	6.021102	6.021102	6.021102
O	4.014068	6.021102	6.021102
O	6.021102	4.014068	6.021102
O	6.021102	6.021102	4.014068
Ru	4.014068	4.014068	4.014068
