40

Hg	2.105038	2.105038	2.105038
In	0.000000	0.000000	0.000000
O	0.000000	2.105038	2.105038
O	2.105038	0.000000	2.105038
O	2.105038	2.105038	0.000000
Hg	2.105038	2.105038	6.315115
In	0.000000	0.000000	4.210077
O	0.000000	2.105038	6.315115
O	2.105038	0.000000	6.315115
O	2.105038	2.105038	4.210077
Hg	2.105038	6.315115	2.105038
In	0.000000	4.210077	0.000000
O	0.000000	6.315115	2.105038
O	2.105038	4.210077	2.105038
O	2.105038	6.315115	0.000000
Hg	2.105038	6.315115	6.315115
In	0.000000	4.210077	4.210077
O	0.000000	6.315115	6.315115
O	2.105038	4.210077	6.315115
O	2.105038	6.315115	4.210077
Hg	6.315115	2.105038	2.105038
In	4.210077	0.000000	0.000000
O	4.210077	2.105038	2.105038
O	6.315115	0.000000	2.105038
O	6.315115	2.105038	0.000000
Hg	6.315115	2.105038	6.315115
In	4.210077	0.000000	4.210077
O	4.210077	2.105038	6.315115
O	6.315115	0.000000	6.315115
O	6.315115	2.105038	4.210077
Hg	6.315115	6.315115	2.105038
In	4.210077	4.210077	0.000000
O	4.210077	6.315115	2.105038
O	6.315115	4.210077	2.105038
O	6.315115	6.315115	0.000000
Hg	6.315115	6.315115	6.315115
In	4.210077	4.210077	4.210077
O	4.210077	6.315115	6.315115
O	6.315115	4.210077	6.315115
O	6.315115	6.315115	4.210077
