40

O	2.130370	2.130370	0.000000
O	0.000000	2.130370	2.130370
O	2.130370	0.000000	2.130370
Os_pv	0.000000	0.000000	0.000000
Pu	2.130370	2.130370	2.130370
O	2.130370	2.130370	4.260735
O	0.000000	2.130370	6.391105
O	2.130370	0.000000	6.391105
Os_pv	0.000000	0.000000	4.260735
Pu	2.130370	2.130370	6.391105
O	2.130370	6.391105	0.000000
O	0.000000	6.391105	2.130370
O	2.130370	4.260735	2.130370
Os_pv	0.000000	4.260735	0.000000
Pu	2.130370	6.391105	2.130370
O	2.130370	6.391105	4.260735
O	0.000000	6.391105	6.391105
O	2.130370	4.260735	6.391105
Os_pv	0.000000	4.260735	4.260735
Pu	2.130370	6.391105	6.391105
O	6.391105	2.130370	0.000000
O	4.260735	2.130370	2.130370
O	6.391105	0.000000	2.130370
Os_pv	4.260735	0.000000	0.000000
Pu	6.391105	2.130370	2.130370
O	6.391105	2.130370	4.260735
O	4.260735	2.130370	6.391105
O	6.391105	0.000000	6.391105
Os_pv	4.260735	0.000000	4.260735
Pu	6.391105	2.130370	6.391105
O	6.391105	6.391105	0.000000
O	4.260735	6.391105	2.130370
O	6.391105	4.260735	2.130370
Os_pv	4.260735	4.260735	0.000000
Pu	6.391105	6.391105	2.130370
O	6.391105	6.391105	4.260735
O	4.260735	6.391105	6.391105
O	6.391105	4.260735	6.391105
Os_pv	4.260735	4.260735	4.260735
Pu	6.391105	6.391105	6.391105
