112

Eu	0.000000	0.000000	0.000000
Eu	2.397536	-2.398279	-2.398279
O	3.744494	-1.050370	-1.050370
O	-1.050579	1.050370	-3.746187
O	1.050579	-1.050370	-3.746187
O	1.346958	1.347908	-1.347908
O	5.845651	1.050370	-1.050370
O	1.346958	3.448649	-3.448649
O	3.448115	3.448649	-1.347908
O	3.448115	1.347908	-3.448649
Tm	-1.198768	-1.199139	-3.597418
Tm	3.596305	1.199139	-1.199139
Tm	5.993841	-1.199139	-1.199139
Tm	1.198768	1.199139	-3.597418
Eu	4.795073	4.796557	0.000000
Eu	7.192609	2.398279	-2.398279
O	8.539567	3.746187	-1.050370
O	3.744494	5.846928	-3.746187
O	5.845651	3.746187	-3.746187
O	6.142030	6.144465	-1.347908
O	10.640724	5.846928	-1.050370
O	6.142030	8.245206	-3.448649
O	8.243188	8.245206	-1.347908
O	8.243188	6.144465	-3.448649
Tm	3.596305	3.597418	-3.597418
Tm	8.391377	5.995696	-1.199139
Tm	10.788914	3.597418	-1.199139
Tm	5.993841	5.995696	-3.597418
Eu	-4.795073	0.000000	-4.796557
Eu	-2.397536	-2.398279	-7.194836
O	-1.050579	-1.050370	-5.846928
O	-5.845651	1.050370	-8.542744
O	-3.744494	-1.050370	-8.542744
O	-3.448115	1.347908	-6.144465
O	1.050579	1.050370	-5.846928
O	-3.448115	3.448649	-8.245206
O	-1.346958	3.448649	-6.144465
O	-1.346958	1.347908	-8.245206
Tm	-5.993841	-1.199139	-8.393975
Tm	-1.198768	1.199139	-5.995696
Tm	1.198768	-1.199139	-5.995696
Tm	-3.596305	1.199139	-8.393975
Eu	0.000000	4.796557	-4.796557
Eu	2.397536	2.398279	-7.194836
O	3.744494	3.746187	-5.846928
O	-1.050579	5.846928	-8.542744
O	1.050579	3.746187	-8.542744
O	1.346958	6.144465	-6.144465
O	5.845651	5.846928	-5.846928
O	1.346958	8.245206	-8.245206
O	3.448115	8.245206	-6.144465
O	3.448115	6.144465	-8.245206
Tm	-1.198768	3.597418	-8.393975
Tm	3.596305	5.995696	-5.995696
Tm	5.993841	3.597418	-5.995696
Tm	1.198768	5.995696	-8.393975
Eu	4.795073	-4.796557	0.000000
Eu	7.192609	-7.194836	-2.398279
O	8.539567	-5.846928	-1.050370
O	3.744494	-3.746187	-3.746187
O	5.845651	-5.846928	-3.746187
O	6.142030	-3.448649	-1.347908
O	10.640724	-3.746187	-1.050370
O	6.142030	-1.347908	-3.448649
O	8.243188	-1.347908	-1.347908
O	8.243188	-3.448649	-3.448649
Tm	3.596305	-5.995696	-3.597418
Tm	8.391377	-3.597418	-1.199139
Tm	10.788914	-5.995696	-1.199139
Tm	5.993841	-3.597418	-3.597418
Eu	9.590145	0.000000	0.000000
Eu	11.987682	-2.398279	-2.398279
O	13.334639	-1.050370	-1.050370
O	8.539567	1.050370	-3.746187
O	10.640724	-1.050370	-3.746187
O	10.937103	1.347908	-1.347908
O	15.435797	1.050370	-1.050370
O	10.937103	3.448649	-3.448649
O	13.038260	3.448649	-1.347908
O	13.038260	1.347908	-3.448649
Tm	8.391377	-1.199139	-3.597418
Tm	13.186450	1.199139	-1.199139
Tm	15.583986	-1.199139	-1.199139
Tm	10.788914	1.199139	-3.597418
Eu	0.000000	-4.796557	-4.796557
Eu	2.397536	-7.194836	-7.194836
O	3.744494	-5.846928	-5.846928
O	-1.050579	-3.746187	-8.542744
O	1.050579	-5.846928	-8.542744
O	1.346958	-3.448649	-6.144465
O	5.845651	-3.746187	-5.846928
O	1.346958	-1.347908	-8.245206
O	3.448115	-1.347908	-6.144465
O	3.448115	-3.448649	-8.245206
Tm	-1.198768	-5.995696	-8.393975
Tm	3.596305	-3.597418	-5.995696
Tm	5.993841	-5.995696	-5.995696
Tm	1.198768	-3.597418	-8.393975
Eu	4.795073	0.000000	-4.796557
Eu	7.192609	-2.398279	-7.194836
O	8.539567	-1.050370	-5.846928
O	3.744494	1.050370	-8.542744
O	5.845651	-1.050370	-8.542744
O	6.142030	1.347908	-6.144465
O	10.640724	1.050370	-5.846928
O	6.142030	3.448649	-8.245206
O	8.243188	3.448649	-6.144465
O	8.243188	1.347908	-8.245206
Tm	3.596305	-1.199139	-8.393975
Tm	8.391377	1.199139	-5.995696
Tm	10.788914	-1.199139	-5.995696
Tm	5.993841	1.199139	-8.393975
