40

Ba	2.282313	2.282313	2.282313
Hg	0.000000	0.000000	0.000000
O	2.282313	2.282313	0.000000
O	2.282313	0.000000	2.282313
O	0.000000	2.282313	2.282313
Ba	2.282313	2.282313	6.846939
Hg	0.000000	0.000000	4.564626
O	2.282313	2.282313	4.564626
O	2.282313	0.000000	6.846939
O	0.000000	2.282313	6.846939
Ba	2.282313	6.846939	2.282313
Hg	0.000000	4.564626	0.000000
O	2.282313	6.846939	0.000000
O	2.282313	4.564626	2.282313
O	0.000000	6.846939	2.282313
Ba	2.282313	6.846939	6.846939
Hg	0.000000	4.564626	4.564626
O	2.282313	6.846939	4.564626
O	2.282313	4.564626	6.846939
O	0.000000	6.846939	6.846939
Ba	6.846939	2.282313	2.282313
Hg	4.564626	0.000000	0.000000
O	6.846939	2.282313	0.000000
O	6.846939	0.000000	2.282313
O	4.564626	2.282313	2.282313
Ba	6.846939	2.282313	6.846939
Hg	4.564626	0.000000	4.564626
O	6.846939	2.282313	4.564626
O	6.846939	0.000000	6.846939
O	4.564626	2.282313	6.846939
Ba	6.846939	6.846939	2.282313
Hg	4.564626	4.564626	0.000000
O	6.846939	6.846939	0.000000
O	6.846939	4.564626	2.282313
O	4.564626	6.846939	2.282313
Ba	6.846939	6.846939	6.846939
Hg	4.564626	4.564626	4.564626
O	6.846939	6.846939	4.564626
O	6.846939	4.564626	6.846939
O	4.564626	6.846939	6.846939
