40

Cr	0.000000	0.000000	0.000000
Np	2.138957	2.138957	2.138957
O	2.138957	2.138957	0.000000
O	2.138957	0.000000	2.138957
O	0.000000	2.138957	2.138957
Cr	0.000000	0.000000	4.277908
Np	2.138957	2.138957	6.416865
O	2.138957	2.138957	4.277908
O	2.138957	0.000000	6.416865
O	0.000000	2.138957	6.416865
Cr	0.000000	4.277908	0.000000
Np	2.138957	6.416865	2.138957
O	2.138957	6.416865	0.000000
O	2.138957	4.277908	2.138957
O	0.000000	6.416865	2.138957
Cr	0.000000	4.277908	4.277908
Np	2.138957	6.416865	6.416865
O	2.138957	6.416865	4.277908
O	2.138957	4.277908	6.416865
O	0.000000	6.416865	6.416865
Cr	4.277908	0.000000	0.000000
Np	6.416865	2.138957	2.138957
O	6.416865	2.138957	0.000000
O	6.416865	0.000000	2.138957
O	4.277908	2.138957	2.138957
Cr	4.277908	0.000000	4.277908
Np	6.416865	2.138957	6.416865
O	6.416865	2.138957	4.277908
O	6.416865	0.000000	6.416865
O	4.277908	2.138957	6.416865
Cr	4.277908	4.277908	0.000000
Np	6.416865	6.416865	2.138957
O	6.416865	6.416865	0.000000
O	6.416865	4.277908	2.138957
O	4.277908	6.416865	2.138957
Cr	4.277908	4.277908	4.277908
Np	6.416865	6.416865	6.416865
O	6.416865	6.416865	4.277908
O	6.416865	4.277908	6.416865
O	4.277908	6.416865	6.416865
