40

Cr	1.897831	1.897831	1.897831
O	0.000000	1.897831	1.897831
O	1.897831	0.000000	1.897831
O	1.897831	1.897831	0.000000
Ti	0.000000	0.000000	0.000000
Cr	1.897831	1.897831	5.693494
O	0.000000	1.897831	5.693494
O	1.897831	0.000000	5.693494
O	1.897831	1.897831	3.795663
Ti	0.000000	0.000000	3.795663
Cr	1.897831	5.693494	1.897831
O	0.000000	5.693494	1.897831
O	1.897831	3.795663	1.897831
O	1.897831	5.693494	0.000000
Ti	0.000000	3.795663	0.000000
Cr	1.897831	5.693494	5.693494
O	0.000000	5.693494	5.693494
O	1.897831	3.795663	5.693494
O	1.897831	5.693494	3.795663
Ti	0.000000	3.795663	3.795663
Cr	5.693494	1.897831	1.897831
O	3.795663	1.897831	1.897831
O	5.693494	0.000000	1.897831
O	5.693494	1.897831	0.000000
Ti	3.795663	0.000000	0.000000
Cr	5.693494	1.897831	5.693494
O	3.795663	1.897831	5.693494
O	5.693494	0.000000	5.693494
O	5.693494	1.897831	3.795663
Ti	3.795663	0.000000	3.795663
Cr	5.693494	5.693494	1.897831
O	3.795663	5.693494	1.897831
O	5.693494	3.795663	1.897831
O	5.693494	5.693494	0.000000
Ti	3.795663	3.795663	0.000000
Cr	5.693494	5.693494	5.693494
O	3.795663	5.693494	5.693494
O	5.693494	3.795663	5.693494
O	5.693494	5.693494	3.795663
Ti	3.795663	3.795663	3.795663
