40

Co	1.865284	1.865284	1.865284
O	1.865284	1.865284	0.000000
O	0.000000	1.865284	1.865284
O	1.865284	0.000000	1.865284
Sm	-0.015000	0.000000	0.000000
Co	1.865284	1.865284	5.595851
O	1.865284	1.865284	3.730567
O	0.000000	1.865284	5.595851
O	1.865284	0.000000	5.595851
Sm	-0.015000	0.000000	3.730567
Co	1.865284	5.595851	1.865284
O	1.865284	5.595851	0.000000
O	0.000000	5.595851	1.865284
O	1.865284	3.730567	1.865284
Sm	-0.015000	3.730567	0.000000
Co	1.865284	5.595851	5.595851
O	1.865284	5.595851	3.730567
O	0.000000	5.595851	5.595851
O	1.865284	3.730567	5.595851
Sm	-0.015000	3.730567	3.730567
Co	5.595851	1.865284	1.865284
O	5.595851	1.865284	0.000000
O	3.730567	1.865284	1.865284
O	5.595851	0.000000	1.865284
Sm	3.715567	0.000000	0.000000
Co	5.595851	1.865284	5.595851
O	5.595851	1.865284	3.730567
O	3.730567	1.865284	5.595851
O	5.595851	0.000000	5.595851
Sm	3.715567	0.000000	3.730567
Co	5.595851	5.595851	1.865284
O	5.595851	5.595851	0.000000
O	3.730567	5.595851	1.865284
O	5.595851	3.730567	1.865284
Sm	3.715567	3.730567	0.000000
Co	5.595851	5.595851	5.595851
O	5.595851	5.595851	3.730567
O	3.730567	5.595851	5.595851
O	5.595851	3.730567	5.595851
Sm	3.715567	3.730567	3.730567
