40

Ga	1.899776	1.899776	1.899776
O	0.000000	1.899776	1.899776
O	1.899776	0.000000	1.899776
O	1.899776	1.899776	0.000000
Ta	0.000000	0.000000	0.000000
Ga	1.899776	1.899776	5.699327
O	0.000000	1.899776	5.699327
O	1.899776	0.000000	5.699327
O	1.899776	1.899776	3.799551
Ta	0.000000	0.000000	3.799551
Ga	1.899776	5.699327	1.899776
O	0.000000	5.699327	1.899776
O	1.899776	3.799551	1.899776
O	1.899776	5.699327	0.000000
Ta	0.000000	3.799551	0.000000
Ga	1.899776	5.699327	5.699327
O	0.000000	5.699327	5.699327
O	1.899776	3.799551	5.699327
O	1.899776	5.699327	3.799551
Ta	0.000000	3.799551	3.799551
Ga	5.699327	1.899776	1.899776
O	3.799551	1.899776	1.899776
O	5.699327	0.000000	1.899776
O	5.699327	1.899776	0.000000
Ta	3.799551	0.000000	0.000000
Ga	5.699327	1.899776	5.699327
O	3.799551	1.899776	5.699327
O	5.699327	0.000000	5.699327
O	5.699327	1.899776	3.799551
Ta	3.799551	0.000000	3.799551
Ga	5.699327	5.699327	1.899776
O	3.799551	5.699327	1.899776
O	5.699327	3.799551	1.899776
O	5.699327	5.699327	0.000000
Ta	3.799551	3.799551	0.000000
Ga	5.699327	5.699327	5.699327
O	3.799551	5.699327	5.699327
O	5.699327	3.799551	5.699327
O	5.699327	5.699327	3.799551
Ta	3.799551	3.799551	3.799551
