96

O	3.528736	3.528736	0.000000
O	3.528736	0.000000	3.528736
O	0.000000	3.528736	3.528736
P	0.000000	0.000000	0.000000
Rb	1.854010	1.854010	1.854010
Rb	5.203463	1.854010	1.854010
Rb	1.854010	5.203463	1.854010
Rb	5.203463	5.203463	1.854010
Rb	1.854010	1.854010	5.203463
Rb	5.203463	1.854010	5.203463
Rb	1.854010	5.203463	5.203463
Rb	5.203463	5.203463	5.203463
O	3.528736	3.528736	7.057472
O	3.528736	0.000000	10.586208
O	0.000000	3.528736	10.586208
P	0.000000	0.000000	7.057472
Rb	1.854010	1.854010	8.911482
Rb	5.203463	1.854010	8.911482
Rb	1.854010	5.203463	8.911482
Rb	5.203463	5.203463	8.911482
Rb	1.854010	1.854010	12.260935
Rb	5.203463	1.854010	12.260935
Rb	1.854010	5.203463	12.260935
Rb	5.203463	5.203463	12.260935
O	3.528736	10.586208	0.000000
O	3.528736	7.057472	3.528736
O	0.000000	10.586208	3.528736
P	0.000000	7.057472	0.000000
Rb	1.854010	8.911482	1.854010
Rb	5.203463	8.911482	1.854010
Rb	1.854010	12.260935	1.854010
Rb	5.203463	12.260935	1.854010
Rb	1.854010	8.911482	5.203463
Rb	5.203463	8.911482	5.203463
Rb	1.854010	12.260935	5.203463
Rb	5.203463	12.260935	5.203463
O	3.528736	10.586208	7.057472
O	3.528736	7.057472	10.586208
O	0.000000	10.586208	10.586208
P	0.000000	7.057472	7.057472
Rb	1.854010	8.911482	8.911482
Rb	5.203463	8.911482	8.911482
Rb	1.854010	12.260935	8.911482
Rb	5.203463	12.260935	8.911482
Rb	1.854010	8.911482	12.260935
Rb	5.203463	8.911482	12.260935
Rb	1.854010	12.260935	12.260935
Rb	5.203463	12.260935	12.260935
O	10.586208	3.528736	0.000000
O	10.586208	0.000000	3.528736
O	7.057472	3.528736	3.528736
P	7.057472	0.000000	0.000000
Rb	8.911482	1.854010	1.854010
Rb	12.260935	1.854010	1.854010
Rb	8.911482	5.203463	1.854010
Rb	12.260935	5.203463	1.854010
Rb	8.911482	1.854010	5.203463
Rb	12.260935	1.854010	5.203463
Rb	8.911482	5.203463	5.203463
Rb	12.260935	5.203463	5.203463
O	10.586208	3.528736	7.057472
O	10.586208	0.000000	10.586208
O	7.057472	3.528736	10.586208
P	7.057472	0.000000	7.057472
Rb	8.911482	1.854010	8.911482
Rb	12.260935	1.854010	8.911482
Rb	8.911482	5.203463	8.911482
Rb	12.260935	5.203463	8.911482
Rb	8.911482	1.854010	12.260935
Rb	12.260935	1.854010	12.260935
Rb	8.911482	5.203463	12.260935
Rb	12.260935	5.203463	12.260935
O	10.586208	10.586208	0.000000
O	10.586208	7.057472	3.528736
O	7.057472	10.586208	3.528736
P	7.057472	7.057472	0.000000
Rb	8.911482	8.911482	1.854010
Rb	12.260935	8.911482	1.854010
Rb	8.911482	12.260935	1.854010
Rb	12.260935	12.260935	1.854010
Rb	8.911482	8.911482	5.203463
Rb	12.260935	8.911482	5.203463
Rb	8.911482	12.260935	5.203463
Rb	12.260935	12.260935	5.203463
O	10.586208	10.586208	7.057472
O	10.586208	7.057472	10.586208
O	7.057472	10.586208	10.586208
P	7.057472	7.057472	7.057472
Rb	8.911482	8.911482	8.911482
Rb	12.260935	8.911482	8.911482
Rb	8.911482	12.260935	8.911482
Rb	12.260935	12.260935	8.911482
Rb	8.911482	8.911482	12.260935
Rb	12.260935	8.911482	12.260935
Rb	8.911482	12.260935	12.260935
Rb	12.260935	12.260935	12.260935
