40

C	0.000000	0.000000	0.000000
F	0.000000	1.882894	1.882894
F	1.882894	0.000000	1.882894
F	1.882894	1.882894	0.000000
O	1.882894	1.882894	1.882894
C	0.000000	0.000000	3.765788
F	0.000000	1.882894	5.648682
F	1.882894	0.000000	5.648682
F	1.882894	1.882894	3.765788
O	1.882894	1.882894	5.648682
C	0.000000	3.765788	0.000000
F	0.000000	5.648682	1.882894
F	1.882894	3.765788	1.882894
F	1.882894	5.648682	0.000000
O	1.882894	5.648682	1.882894
C	0.000000	3.765788	3.765788
F	0.000000	5.648682	5.648682
F	1.882894	3.765788	5.648682
F	1.882894	5.648682	3.765788
O	1.882894	5.648682	5.648682
C	3.765788	0.000000	0.000000
F	3.765788	1.882894	1.882894
F	5.648682	0.000000	1.882894
F	5.648682	1.882894	0.000000
O	5.648682	1.882894	1.882894
C	3.765788	0.000000	3.765788
F	3.765788	1.882894	5.648682
F	5.648682	0.000000	5.648682
F	5.648682	1.882894	3.765788
O	5.648682	1.882894	5.648682
C	3.765788	3.765788	0.000000
F	3.765788	5.648682	1.882894
F	5.648682	3.765788	1.882894
F	5.648682	5.648682	0.000000
O	5.648682	5.648682	1.882894
C	3.765788	3.765788	3.765788
F	3.765788	5.648682	5.648682
F	5.648682	3.765788	5.648682
F	5.648682	5.648682	3.765788
O	5.648682	5.648682	5.648682
