40

Hf	2.090581	2.090581	2.090581
K	0.000000	0.000000	0.000000
O	2.090581	2.090581	0.000000
O	2.090581	0.000000	2.090581
O	0.000000	2.090581	2.090581
Hf	2.090581	2.090581	6.271742
K	0.000000	0.000000	4.181161
O	2.090581	2.090581	4.181161
O	2.090581	0.000000	6.271742
O	0.000000	2.090581	6.271742
Hf	2.090581	6.271742	2.090581
K	0.000000	4.181161	0.000000
O	2.090581	6.271742	0.000000
O	2.090581	4.181161	2.090581
O	0.000000	6.271742	2.090581
Hf	2.090581	6.271742	6.271742
K	0.000000	4.181161	4.181161
O	2.090581	6.271742	4.181161
O	2.090581	4.181161	6.271742
O	0.000000	6.271742	6.271742
Hf	6.271742	2.090581	2.090581
K	4.181161	0.000000	0.000000
O	6.271742	2.090581	0.000000
O	6.271742	0.000000	2.090581
O	4.181161	2.090581	2.090581
Hf	6.271742	2.090581	6.271742
K	4.181161	0.000000	4.181161
O	6.271742	2.090581	4.181161
O	6.271742	0.000000	6.271742
O	4.181161	2.090581	6.271742
Hf	6.271742	6.271742	2.090581
K	4.181161	4.181161	0.000000
O	6.271742	6.271742	0.000000
O	6.271742	4.181161	2.090581
O	4.181161	6.271742	2.090581
Hf	6.271742	6.271742	6.271742
K	4.181161	4.181161	4.181161
O	6.271742	6.271742	4.181161
O	6.271742	4.181161	6.271742
O	4.181161	6.271742	6.271742
