40

Cr	1.946912	1.946912	1.946912
I	0.000000	0.000000	0.000000
O	0.000000	1.946912	1.946912
O	1.946912	0.000000	1.946912
O	1.946912	1.946912	0.000000
Cr	1.946912	1.946912	5.840734
I	0.000000	0.000000	3.893823
O	0.000000	1.946912	5.840734
O	1.946912	0.000000	5.840734
O	1.946912	1.946912	3.893823
Cr	1.946912	5.840734	1.946912
I	0.000000	3.893823	0.000000
O	0.000000	5.840734	1.946912
O	1.946912	3.893823	1.946912
O	1.946912	5.840734	0.000000
Cr	1.946912	5.840734	5.840734
I	0.000000	3.893823	3.893823
O	0.000000	5.840734	5.840734
O	1.946912	3.893823	5.840734
O	1.946912	5.840734	3.893823
Cr	5.840734	1.946912	1.946912
I	3.893823	0.000000	0.000000
O	3.893823	1.946912	1.946912
O	5.840734	0.000000	1.946912
O	5.840734	1.946912	0.000000
Cr	5.840734	1.946912	5.840734
I	3.893823	0.000000	3.893823
O	3.893823	1.946912	5.840734
O	5.840734	0.000000	5.840734
O	5.840734	1.946912	3.893823
Cr	5.840734	5.840734	1.946912
I	3.893823	3.893823	0.000000
O	3.893823	5.840734	1.946912
O	5.840734	3.893823	1.946912
O	5.840734	5.840734	0.000000
Cr	5.840734	5.840734	5.840734
I	3.893823	3.893823	3.893823
O	3.893823	5.840734	5.840734
O	5.840734	3.893823	5.840734
O	5.840734	5.840734	3.893823
