40

Eu	0.000000	0.000000	0.000000
Lu	2.122435	2.122435	2.122435
O	2.122435	2.122435	0.000000
O	2.122435	0.000000	2.122435
O	0.000000	2.122435	2.122435
Eu	0.000000	0.000000	4.244870
Lu	2.122435	2.122435	6.367305
O	2.122435	2.122435	4.244870
O	2.122435	0.000000	6.367305
O	0.000000	2.122435	6.367305
Eu	0.000000	4.244870	0.000000
Lu	2.122435	6.367305	2.122435
O	2.122435	6.367305	0.000000
O	2.122435	4.244870	2.122435
O	0.000000	6.367305	2.122435
Eu	0.000000	4.244870	4.244870
Lu	2.122435	6.367305	6.367305
O	2.122435	6.367305	4.244870
O	2.122435	4.244870	6.367305
O	0.000000	6.367305	6.367305
Eu	4.244870	0.000000	0.000000
Lu	6.367305	2.122435	2.122435
O	6.367305	2.122435	0.000000
O	6.367305	0.000000	2.122435
O	4.244870	2.122435	2.122435
Eu	4.244870	0.000000	4.244870
Lu	6.367305	2.122435	6.367305
O	6.367305	2.122435	4.244870
O	6.367305	0.000000	6.367305
O	4.244870	2.122435	6.367305
Eu	4.244870	4.244870	0.000000
Lu	6.367305	6.367305	2.122435
O	6.367305	6.367305	0.000000
O	6.367305	4.244870	2.122435
O	4.244870	6.367305	2.122435
Eu	4.244870	4.244870	4.244870
Lu	6.367305	6.367305	6.367305
O	6.367305	6.367305	4.244870
O	6.367305	4.244870	6.367305
O	4.244870	6.367305	6.367305
