112

As	0.000000	0.000000	0.000000
As	2.414008	-2.413353	-2.413353
Np	-1.207004	-1.206676	-3.620029
Np	3.621012	1.206676	-1.206676
Np	6.035020	-1.206676	-1.206676
Np	1.207004	1.206676	-3.620029
O	3.595473	-1.232733	-1.232733
O	-1.232543	1.232733	-3.593973
O	1.232543	-1.232733	-3.593973
O	1.181465	1.180620	-1.180620
O	6.060559	1.232733	-1.232733
O	1.181465	3.646085	-3.646085
O	3.646551	3.646085	-1.180620
O	3.646551	1.180620	-3.646085
As	4.828016	4.826706	0.000000
As	7.242024	2.413353	-2.413353
Np	3.621012	3.620029	-3.620029
Np	8.449028	6.033382	-1.206676
Np	10.863036	3.620029	-1.206676
Np	6.035020	6.033382	-3.620029
O	8.423489	3.593973	-1.232733
O	3.595473	6.059438	-3.593973
O	6.060559	3.593973	-3.593973
O	6.009481	6.007326	-1.180620
O	10.888576	6.059438	-1.232733
O	6.009481	8.472791	-3.646085
O	8.474568	8.472791	-1.180620
O	8.474568	6.007326	-3.646085
As	-4.828016	0.000000	-4.826706
As	-2.414008	-2.413353	-7.240058
Np	-6.035020	-1.206676	-8.446735
Np	-1.207004	1.206676	-6.033382
Np	1.207004	-1.206676	-6.033382
Np	-3.621012	1.206676	-8.446735
O	-1.232543	-1.232733	-6.059438
O	-6.060559	1.232733	-8.420679
O	-3.595473	-1.232733	-8.420679
O	-3.646551	1.180620	-6.007326
O	1.232543	1.232733	-6.059438
O	-3.646551	3.646085	-8.472791
O	-1.181465	3.646085	-6.007326
O	-1.181465	1.180620	-8.472791
As	0.000000	4.826706	-4.826706
As	2.414008	2.413353	-7.240058
Np	-1.207004	3.620029	-8.446735
Np	3.621012	6.033382	-6.033382
Np	6.035020	3.620029	-6.033382
Np	1.207004	6.033382	-8.446735
O	3.595473	3.593973	-6.059438
O	-1.232543	6.059438	-8.420679
O	1.232543	3.593973	-8.420679
O	1.181465	6.007326	-6.007326
O	6.060559	6.059438	-6.059438
O	1.181465	8.472791	-8.472791
O	3.646551	8.472791	-6.007326
O	3.646551	6.007326	-8.472791
As	4.828016	-4.826706	0.000000
As	7.242024	-7.240058	-2.413353
Np	3.621012	-6.033382	-3.620029
Np	8.449028	-3.620029	-1.206676
Np	10.863036	-6.033382	-1.206676
Np	6.035020	-3.620029	-3.620029
O	8.423489	-6.059438	-1.232733
O	3.595473	-3.593973	-3.593973
O	6.060559	-6.059438	-3.593973
O	6.009481	-3.646085	-1.180620
O	10.888576	-3.593973	-1.232733
O	6.009481	-1.180620	-3.646085
O	8.474568	-1.180620	-1.180620
O	8.474568	-3.646085	-3.646085
As	9.656032	0.000000	0.000000
As	12.070040	-2.413353	-2.413353
Np	8.449028	-1.206676	-3.620029
Np	13.277044	1.206676	-1.206676
Np	15.691052	-1.206676	-1.206676
Np	10.863036	1.206676	-3.620029
O	13.251505	-1.232733	-1.232733
O	8.423489	1.232733	-3.593973
O	10.888576	-1.232733	-3.593973
O	10.837497	1.180620	-1.180620
O	15.716592	1.232733	-1.232733
O	10.837497	3.646085	-3.646085
O	13.302584	3.646085	-1.180620
O	13.302584	1.180620	-3.646085
As	0.000000	-4.826706	-4.826706
As	2.414008	-7.240058	-7.240058
Np	-1.207004	-6.033382	-8.446735
Np	3.621012	-3.620029	-6.033382
Np	6.035020	-6.033382	-6.033382
Np	1.207004	-3.620029	-8.446735
O	3.595473	-6.059438	-6.059438
O	-1.232543	-3.593973	-8.420679
O	1.232543	-6.059438	-8.420679
O	1.181465	-3.646085	-6.007326
O	6.060559	-3.593973	-6.059438
O	1.181465	-1.180620	-8.472791
O	3.646551	-1.180620	-6.007326
O	3.646551	-3.646085	-8.472791
As	4.828016	0.000000	-4.826706
As	7.242024	-2.413353	-7.240058
Np	3.621012	-1.206676	-8.446735
Np	8.449028	1.206676	-6.033382
Np	10.863036	-1.206676	-6.033382
Np	6.035020	1.206676	-8.446735
O	8.423489	-1.232733	-6.059438
O	3.595473	1.232733	-8.420679
O	6.060559	-1.232733	-8.420679
O	6.009481	1.180620	-6.007326
O	10.888576	1.232733	-6.059438
O	6.009481	3.646085	-8.472791
O	8.474568	3.646085	-6.007326
O	8.474568	1.180620	-8.472791
