128

O	5.241932	5.241932	5.241932
O	4.127445	2.118807	4.127445
O	2.118807	4.127445	4.127445
O	4.127445	4.127445	2.118807
O	2.118807	2.118807	2.118807
O	1.004319	1.004319	5.241932
O	1.004319	5.241932	1.004319
O	5.241932	1.004319	1.004319
As	3.123126	3.123126	3.123126
As	0.000000	0.000000	0.000000
Ag	0.000000	3.123126	1.561563
Ag	0.000000	3.123126	4.684689
Ag	4.684689	0.000000	3.123126
Ag	3.123126	1.561563	0.000000
Ag	1.561563	0.000000	3.123126
Ag	3.123126	4.684689	0.000000
O	5.241932	5.241932	11.488184
O	4.127445	2.118807	10.373696
O	2.118807	4.127445	10.373696
O	4.127445	4.127445	8.365058
O	2.118807	2.118807	8.365058
O	1.004319	1.004319	11.488184
O	1.004319	5.241932	7.250571
O	5.241932	1.004319	7.250571
As	3.123126	3.123126	9.369377
As	0.000000	0.000000	6.246252
Ag	0.000000	3.123126	7.807814
Ag	0.000000	3.123126	10.930940
Ag	4.684689	0.000000	9.369377
Ag	3.123126	1.561563	6.246252
Ag	1.561563	0.000000	9.369377
Ag	3.123126	4.684689	6.246252
O	5.241932	11.488184	5.241932
O	4.127445	8.365058	4.127445
O	2.118807	10.373696	4.127445
O	4.127445	10.373696	2.118807
O	2.118807	8.365058	2.118807
O	1.004319	7.250571	5.241932
O	1.004319	11.488184	1.004319
O	5.241932	7.250571	1.004319
As	3.123126	9.369377	3.123126
As	0.000000	6.246252	0.000000
Ag	0.000000	9.369377	1.561563
Ag	0.000000	9.369377	4.684689
Ag	4.684689	6.246252	3.123126
Ag	3.123126	7.807814	0.000000
Ag	1.561563	6.246252	3.123126
Ag	3.123126	10.930940	0.000000
O	5.241932	11.488184	11.488184
O	4.127445	8.365058	10.373696
O	2.118807	10.373696	10.373696
O	4.127445	10.373696	8.365058
O	2.118807	8.365058	8.365058
O	1.004319	7.250571	11.488184
O	1.004319	11.488184	7.250571
O	5.241932	7.250571	7.250571
As	3.123126	9.369377	9.369377
As	0.000000	6.246252	6.246252
Ag	0.000000	9.369377	7.807814
Ag	0.000000	9.369377	10.930940
Ag	4.684689	6.246252	9.369377
Ag	3.123126	7.807814	6.246252
Ag	1.561563	6.246252	9.369377
Ag	3.123126	10.930940	6.246252
O	11.488184	5.241932	5.241932
O	10.373696	2.118807	4.127445
O	8.365058	4.127445	4.127445
O	10.373696	4.127445	2.118807
O	8.365058	2.118807	2.118807
O	7.250571	1.004319	5.241932
O	7.250571	5.241932	1.004319
O	11.488184	1.004319	1.004319
As	9.369377	3.123126	3.123126
As	6.246252	0.000000	0.000000
Ag	6.246252	3.123126	1.561563
Ag	6.246252	3.123126	4.684689
Ag	10.930940	0.000000	3.123126
Ag	9.369377	1.561563	0.000000
Ag	7.807814	0.000000	3.123126
Ag	9.369377	4.684689	0.000000
O	11.488184	5.241932	11.488184
O	10.373696	2.118807	10.373696
O	8.365058	4.127445	10.373696
O	10.373696	4.127445	8.365058
O	8.365058	2.118807	8.365058
O	7.250571	1.004319	11.488184
O	7.250571	5.241932	7.250571
O	11.488184	1.004319	7.250571
As	9.369377	3.123126	9.369377
As	6.246252	0.000000	6.246252
Ag	6.246252	3.123126	7.807814
Ag	6.246252	3.123126	10.930940
Ag	10.930940	0.000000	9.369377
Ag	9.369377	1.561563	6.246252
Ag	7.807814	0.000000	9.369377
Ag	9.369377	4.684689	6.246252
O	11.488184	11.488184	5.241932
O	10.373696	8.365058	4.127445
O	8.365058	10.373696	4.127445
O	10.373696	10.373696	2.118807
O	8.365058	8.365058	2.118807
O	7.250571	7.250571	5.241932
O	7.250571	11.488184	1.004319
O	11.488184	7.250571	1.004319
As	9.369377	9.369377	3.123126
As	6.246252	6.246252	0.000000
Ag	6.246252	9.369377	1.561563
Ag	6.246252	9.369377	4.684689
Ag	10.930940	6.246252	3.123126
Ag	9.369377	7.807814	0.000000
Ag	7.807814	6.246252	3.123126
Ag	9.369377	10.930940	0.000000
O	11.488184	11.488184	11.488184
O	10.373696	8.365058	10.373696
O	8.365058	10.373696	10.373696
O	10.373696	10.373696	8.365058
O	8.365058	8.365058	8.365058
O	7.250571	7.250571	11.488184
O	7.250571	11.488184	7.250571
O	11.488184	7.250571	7.250571
As	9.369377	9.369377	9.369377
As	6.246252	6.246252	6.246252
Ag	6.246252	9.369377	7.807814
Ag	6.246252	9.369377	10.930940
Ag	10.930940	6.246252	9.369377
Ag	9.369377	7.807814	6.246252
Ag	7.807814	6.246252	9.369377
Ag	9.369377	10.930940	6.246252
