40

Ag	0.000000	0.000000	0.000000
Fe	1.930989	1.930989	1.930989
O	0.000000	1.930989	1.930989
O	1.930989	0.000000	1.930989
O	1.930989	1.930989	0.000000
Ag	0.000000	0.000000	3.861979
Fe	1.930989	1.930989	5.792968
O	0.000000	1.930989	5.792968
O	1.930989	0.000000	5.792968
O	1.930989	1.930989	3.861979
Ag	0.000000	3.861979	0.000000
Fe	1.930989	5.792968	1.930989
O	0.000000	5.792968	1.930989
O	1.930989	3.861979	1.930989
O	1.930989	5.792968	0.000000
Ag	0.000000	3.861979	3.861979
Fe	1.930989	5.792968	5.792968
O	0.000000	5.792968	5.792968
O	1.930989	3.861979	5.792968
O	1.930989	5.792968	3.861979
Ag	3.861979	0.000000	0.000000
Fe	5.792968	1.930989	1.930989
O	3.861979	1.930989	1.930989
O	5.792968	0.000000	1.930989
O	5.792968	1.930989	0.000000
Ag	3.861979	0.000000	3.861979
Fe	5.792968	1.930989	5.792968
O	3.861979	1.930989	5.792968
O	5.792968	0.000000	5.792968
O	5.792968	1.930989	3.861979
Ag	3.861979	3.861979	0.000000
Fe	5.792968	5.792968	1.930989
O	3.861979	5.792968	1.930989
O	5.792968	3.861979	1.930989
O	5.792968	5.792968	0.000000
Ag	3.861979	3.861979	3.861979
Fe	5.792968	5.792968	5.792968
O	3.861979	5.792968	5.792968
O	5.792968	3.861979	5.792968
O	5.792968	5.792968	3.861979
