112

Gd	0.000000	0.000000	0.000000
Gd	2.236388	-2.236380	-2.236380
O	3.483598	-0.988367	-0.988367
O	-0.989178	0.988367	-3.484394
O	0.989178	-0.988367	-3.484394
O	1.247210	1.248013	-1.248013
O	5.461953	0.988367	-0.988367
O	1.247210	3.224747	-3.224747
O	3.225565	3.224747	-1.248013
O	3.225566	1.248013	-3.224747
Zn	-1.118194	-1.118190	-3.354571
Zn	3.354582	1.118190	-1.118190
Zn	5.590970	-1.118190	-1.118190
Zn	1.118194	1.118190	-3.354571
Gd	4.472776	4.472761	0.000000
Gd	6.709164	2.236380	-2.236380
O	7.956374	3.484394	-0.988367
O	3.483598	5.461128	-3.484394
O	5.461953	3.484394	-3.484394
O	5.719986	5.720774	-1.248013
O	9.934729	5.461128	-0.988367
O	5.719986	7.697508	-3.224747
O	7.698341	7.697508	-1.248013
O	7.698341	5.720774	-3.224747
Zn	3.354582	3.354571	-3.354571
Zn	7.827358	5.590951	-1.118190
Zn	10.063746	3.354571	-1.118190
Zn	5.590970	5.590951	-3.354571
Gd	-4.472776	0.000000	-4.472761
Gd	-2.236388	-2.236380	-6.709141
O	-0.989178	-0.988367	-5.461128
O	-5.461953	0.988367	-7.957154
O	-3.483598	-0.988367	-7.957154
O	-3.225566	1.248013	-5.720774
O	0.989178	0.988367	-5.461128
O	-3.225565	3.224747	-7.697508
O	-1.247210	3.224747	-5.720774
O	-1.247210	1.248013	-7.697508
Zn	-5.590970	-1.118190	-7.827331
Zn	-1.118194	1.118190	-5.590951
Zn	1.118194	-1.118190	-5.590951
Zn	-3.354582	1.118190	-7.827331
Gd	0.000000	4.472761	-4.472761
Gd	2.236388	2.236380	-6.709141
O	3.483598	3.484394	-5.461128
O	-0.989178	5.461128	-7.957154
O	0.989178	3.484394	-7.957154
O	1.247210	5.720774	-5.720774
O	5.461953	5.461128	-5.461128
O	1.247210	7.697508	-7.697508
O	3.225565	7.697508	-5.720774
O	3.225566	5.720774	-7.697508
Zn	-1.118194	3.354571	-7.827331
Zn	3.354582	5.590951	-5.590951
Zn	5.590970	3.354571	-5.590951
Zn	1.118194	5.590951	-7.827331
Gd	4.472776	-4.472761	0.000000
Gd	6.709164	-6.709141	-2.236380
O	7.956374	-5.461128	-0.988367
O	3.483598	-3.484394	-3.484394
O	5.461953	-5.461128	-3.484394
O	5.719986	-3.224747	-1.248013
O	9.934729	-3.484394	-0.988367
O	5.719986	-1.248013	-3.224747
O	7.698341	-1.248013	-1.248013
O	7.698341	-3.224747	-3.224747
Zn	3.354582	-5.590951	-3.354571
Zn	7.827358	-3.354571	-1.118190
Zn	10.063746	-5.590951	-1.118190
Zn	5.590970	-3.354571	-3.354571
Gd	8.945552	0.000000	0.000000
Gd	11.181940	-2.236380	-2.236380
O	12.429150	-0.988367	-0.988367
O	7.956374	0.988367	-3.484394
O	9.934729	-0.988367	-3.484394
O	10.192762	1.248013	-1.248013
O	14.407505	0.988367	-0.988367
O	10.192762	3.224747	-3.224747
O	12.171117	3.224747	-1.248013
O	12.171117	1.248013	-3.224747
Zn	7.827358	-1.118190	-3.354571
Zn	12.300134	1.118190	-1.118190
Zn	14.536522	-1.118190	-1.118190
Zn	10.063746	1.118190	-3.354571
Gd	0.000000	-4.472761	-4.472761
Gd	2.236388	-6.709141	-6.709141
O	3.483598	-5.461128	-5.461128
O	-0.989178	-3.484394	-7.957154
O	0.989178	-5.461128	-7.957154
O	1.247210	-3.224747	-5.720774
O	5.461953	-3.484394	-5.461128
O	1.247210	-1.248013	-7.697508
O	3.225565	-1.248013	-5.720774
O	3.225566	-3.224747	-7.697508
Zn	-1.118194	-5.590951	-7.827331
Zn	3.354582	-3.354571	-5.590951
Zn	5.590970	-5.590951	-5.590951
Zn	1.118194	-3.354571	-7.827331
Gd	4.472776	0.000000	-4.472761
Gd	6.709164	-2.236380	-6.709141
O	7.956374	-0.988367	-5.461128
O	3.483598	0.988367	-7.957154
O	5.461953	-0.988367	-7.957154
O	5.719986	1.248013	-5.720774
O	9.934729	0.988367	-5.461128
O	5.719986	3.224747	-7.697508
O	7.698341	3.224747	-5.720774
O	7.698341	1.248013	-7.697508
Zn	3.354582	-1.118190	-7.827331
Zn	7.827358	1.118190	-5.590951
Zn	10.063746	-1.118190	-5.590951
Zn	5.590970	1.118190	-7.827331
