40

Ce	0.000000	0.000000	0.000000
O	1.913923	1.913923	0.000000
O	0.000000	1.913923	1.913923
O	1.913923	0.000000	1.913923
V	1.898923	1.913923	1.913923
Ce	0.000000	0.000000	3.827845
O	1.913923	1.913923	3.827845
O	0.000000	1.913923	5.741768
O	1.913923	0.000000	5.741768
V	1.898923	1.913923	5.741768
Ce	0.000000	3.827845	0.000000
O	1.913923	5.741768	0.000000
O	0.000000	5.741768	1.913923
O	1.913923	3.827845	1.913923
V	1.898923	5.741768	1.913923
Ce	0.000000	3.827845	3.827845
O	1.913923	5.741768	3.827845
O	0.000000	5.741768	5.741768
O	1.913923	3.827845	5.741768
V	1.898923	5.741768	5.741768
Ce	3.827845	0.000000	0.000000
O	5.741768	1.913923	0.000000
O	3.827845	1.913923	1.913923
O	5.741768	0.000000	1.913923
V	5.726768	1.913923	1.913923
Ce	3.827845	0.000000	3.827845
O	5.741768	1.913923	3.827845
O	3.827845	1.913923	5.741768
O	5.741768	0.000000	5.741768
V	5.726768	1.913923	5.741768
Ce	3.827845	3.827845	0.000000
O	5.741768	5.741768	0.000000
O	3.827845	5.741768	1.913923
O	5.741768	3.827845	1.913923
V	5.726768	5.741768	1.913923
Ce	3.827845	3.827845	3.827845
O	5.741768	5.741768	3.827845
O	3.827845	5.741768	5.741768
O	5.741768	3.827845	5.741768
V	5.726768	5.741768	5.741768
