40

As	2.010240	2.010240	2.010240
O	2.010240	2.010240	0.000000
O	0.000000	2.010240	2.010240
O	2.010240	0.000000	2.010240
Pm_3	0.000000	0.000000	0.000000
As	2.010240	2.010240	6.030714
O	2.010240	2.010240	4.020474
O	0.000000	2.010240	6.030714
O	2.010240	0.000000	6.030714
Pm_3	0.000000	0.000000	4.020474
As	2.010240	6.030714	2.010240
O	2.010240	6.030714	0.000000
O	0.000000	6.030714	2.010240
O	2.010240	4.020474	2.010240
Pm_3	0.000000	4.020474	0.000000
As	2.010240	6.030714	6.030714
O	2.010240	6.030714	4.020474
O	0.000000	6.030714	6.030714
O	2.010240	4.020474	6.030714
Pm_3	0.000000	4.020474	4.020474
As	6.030714	2.010240	2.010240
O	6.030714	2.010240	0.000000
O	4.020474	2.010240	2.010240
O	6.030714	0.000000	2.010240
Pm_3	4.020474	0.000000	0.000000
As	6.030714	2.010240	6.030714
O	6.030714	2.010240	4.020474
O	4.020474	2.010240	6.030714
O	6.030714	0.000000	6.030714
Pm_3	4.020474	0.000000	4.020474
As	6.030714	6.030714	2.010240
O	6.030714	6.030714	0.000000
O	4.020474	6.030714	2.010240
O	6.030714	4.020474	2.010240
Pm_3	4.020474	4.020474	0.000000
As	6.030714	6.030714	6.030714
O	6.030714	6.030714	4.020474
O	4.020474	6.030714	6.030714
O	6.030714	4.020474	6.030714
Pm_3	4.020474	4.020474	4.020474
