40

O	1.987180	1.987180	0.000000
O	0.000000	1.987180	1.987180
O	1.987180	0.000000	1.987180
Ta_pv	1.987180	1.987180	1.987180
Yb_2	0.000000	0.000000	0.000000
O	1.987180	1.987180	3.974360
O	0.000000	1.987180	5.961540
O	1.987180	0.000000	5.961540
Ta_pv	1.987180	1.987180	5.961540
Yb_2	0.000000	0.000000	3.974360
O	1.987180	5.961540	0.000000
O	0.000000	5.961540	1.987180
O	1.987180	3.974360	1.987180
Ta_pv	1.987180	5.961540	1.987180
Yb_2	0.000000	3.974360	0.000000
O	1.987180	5.961540	3.974360
O	0.000000	5.961540	5.961540
O	1.987180	3.974360	5.961540
Ta_pv	1.987180	5.961540	5.961540
Yb_2	0.000000	3.974360	3.974360
O	5.961540	1.987180	0.000000
O	3.974360	1.987180	1.987180
O	5.961540	0.000000	1.987180
Ta_pv	5.961540	1.987180	1.987180
Yb_2	3.974360	0.000000	0.000000
O	5.961540	1.987180	3.974360
O	3.974360	1.987180	5.961540
O	5.961540	0.000000	5.961540
Ta_pv	5.961540	1.987180	5.961540
Yb_2	3.974360	0.000000	3.974360
O	5.961540	5.961540	0.000000
O	3.974360	5.961540	1.987180
O	5.961540	3.974360	1.987180
Ta_pv	5.961540	5.961540	1.987180
Yb_2	3.974360	3.974360	0.000000
O	5.961540	5.961540	3.974360
O	3.974360	5.961540	5.961540
O	5.961540	3.974360	5.961540
Ta_pv	5.961540	5.961540	5.961540
Yb_2	3.974360	3.974360	3.974360
