112

Ag	0.000000	0.000000	0.000000
Ag	2.435535	-2.426618	-2.426618
O	3.790549	-1.052610	-1.052610
O	-1.080522	1.052610	-3.800626
O	1.080522	-1.052610	-3.800626
O	1.355013	1.374008	-1.374008
O	5.951593	1.052610	-1.052610
O	1.355013	3.479228	-3.479228
O	3.516057	3.479228	-1.374008
O	3.516057	1.374008	-3.479228
Pu	-1.217768	-1.213309	-3.639927
Pu	3.653303	1.213309	-1.213309
Pu	6.088838	-1.213309	-1.213309
Pu	1.217768	1.213309	-3.639927
Ag	4.871071	4.853236	0.000000
Ag	7.306606	2.426618	-2.426618
O	8.661619	3.800626	-1.052610
O	3.790549	5.905845	-3.800626
O	5.951593	3.800626	-3.800626
O	6.226084	6.227244	-1.374008
O	10.822663	5.905845	-1.052610
O	6.226084	8.332463	-3.479228
O	8.387128	8.332463	-1.374008
O	8.387128	6.227244	-3.479228
Pu	3.653303	3.639927	-3.639927
Pu	8.524373	6.066545	-1.213309
Pu	10.959909	3.639927	-1.213309
Pu	6.088838	6.066545	-3.639927
Ag	-4.871071	0.000000	-4.853236
Ag	-2.435535	-2.426618	-7.279854
O	-1.080522	-1.052610	-5.905845
O	-5.951593	1.052610	-8.653862
O	-3.790549	-1.052610	-8.653862
O	-3.516057	1.374008	-6.227244
O	1.080522	1.052610	-5.905845
O	-3.516057	3.479228	-8.332463
O	-1.355013	3.479228	-6.227244
O	-1.355013	1.374008	-8.332463
Pu	-6.088838	-1.213309	-8.493162
Pu	-1.217768	1.213309	-6.066545
Pu	1.217768	-1.213309	-6.066545
Pu	-3.653303	1.213309	-8.493162
Ag	0.000000	4.853236	-4.853236
Ag	2.435535	2.426618	-7.279854
O	3.790549	3.800626	-5.905845
O	-1.080522	5.905845	-8.653862
O	1.080522	3.800626	-8.653862
O	1.355013	6.227244	-6.227244
O	5.951593	5.905845	-5.905845
O	1.355013	8.332463	-8.332463
O	3.516057	8.332463	-6.227244
O	3.516057	6.227244	-8.332463
Pu	-1.217768	3.639927	-8.493162
Pu	3.653303	6.066545	-6.066545
Pu	6.088838	3.639927	-6.066545
Pu	1.217768	6.066545	-8.493162
Ag	4.871071	-4.853236	0.000000
Ag	7.306606	-7.279854	-2.426618
O	8.661619	-5.905845	-1.052610
O	3.790549	-3.800626	-3.800626
O	5.951593	-5.905845	-3.800626
O	6.226084	-3.479228	-1.374008
O	10.822663	-3.800626	-1.052610
O	6.226084	-1.374008	-3.479228
O	8.387128	-1.374008	-1.374008
O	8.387128	-3.479228	-3.479228
Pu	3.653303	-6.066545	-3.639927
Pu	8.524373	-3.639927	-1.213309
Pu	10.959909	-6.066545	-1.213309
Pu	6.088838	-3.639927	-3.639927
Ag	9.742141	0.000000	0.000000
Ag	12.177676	-2.426618	-2.426618
O	13.532690	-1.052610	-1.052610
O	8.661619	1.052610	-3.800626
O	10.822663	-1.052610	-3.800626
O	11.097154	1.374008	-1.374008
O	15.693734	1.052610	-1.052610
O	11.097154	3.479228	-3.479228
O	13.258198	3.479228	-1.374008
O	13.258198	1.374008	-3.479228
Pu	8.524373	-1.213309	-3.639927
Pu	13.395444	1.213309	-1.213309
Pu	15.830979	-1.213309	-1.213309
Pu	10.959909	1.213309	-3.639927
Ag	0.000000	-4.853236	-4.853236
Ag	2.435535	-7.279854	-7.279854
O	3.790549	-5.905845	-5.905845
O	-1.080522	-3.800626	-8.653862
O	1.080522	-5.905845	-8.653862
O	1.355013	-3.479228	-6.227244
O	5.951593	-3.800626	-5.905845
O	1.355013	-1.374008	-8.332463
O	3.516057	-1.374008	-6.227244
O	3.516057	-3.479228	-8.332463
Pu	-1.217768	-6.066545	-8.493162
Pu	3.653303	-3.639927	-6.066545
Pu	6.088838	-6.066545	-6.066545
Pu	1.217768	-3.639927	-8.493162
Ag	4.871071	0.000000	-4.853236
Ag	7.306606	-2.426618	-7.279854
O	8.661619	-1.052610	-5.905845
O	3.790549	1.052610	-8.653862
O	5.951593	-1.052610	-8.653862
O	6.226084	1.374008	-6.227244
O	10.822663	1.052610	-5.905845
O	6.226084	3.479228	-8.332463
O	8.387128	3.479228	-6.227244
O	8.387128	1.374008	-8.332463
Pu	3.653303	-1.213309	-8.493162
Pu	8.524373	1.213309	-6.066545
Pu	10.959909	-1.213309	-6.066545
Pu	6.088838	1.213309	-8.493162
