40

Nb	2.037598	2.037598	2.037598
O	0.000000	2.037598	2.037598
O	2.037598	0.000000	2.037598
O	2.037598	2.037598	0.000000
Sb	0.000000	0.000000	0.000000
Nb	2.037598	2.037598	6.112794
O	0.000000	2.037598	6.112794
O	2.037598	0.000000	6.112794
O	2.037598	2.037598	4.075196
Sb	0.000000	0.000000	4.075196
Nb	2.037598	6.112794	2.037598
O	0.000000	6.112794	2.037598
O	2.037598	4.075196	2.037598
O	2.037598	6.112794	0.000000
Sb	0.000000	4.075196	0.000000
Nb	2.037598	6.112794	6.112794
O	0.000000	6.112794	6.112794
O	2.037598	4.075196	6.112794
O	2.037598	6.112794	4.075196
Sb	0.000000	4.075196	4.075196
Nb	6.112794	2.037598	2.037598
O	4.075196	2.037598	2.037598
O	6.112794	0.000000	2.037598
O	6.112794	2.037598	0.000000
Sb	4.075196	0.000000	0.000000
Nb	6.112794	2.037598	6.112794
O	4.075196	2.037598	6.112794
O	6.112794	0.000000	6.112794
O	6.112794	2.037598	4.075196
Sb	4.075196	0.000000	4.075196
Nb	6.112794	6.112794	2.037598
O	4.075196	6.112794	2.037598
O	6.112794	4.075196	2.037598
O	6.112794	6.112794	0.000000
Sb	4.075196	4.075196	0.000000
Nb	6.112794	6.112794	6.112794
O	4.075196	6.112794	6.112794
O	6.112794	4.075196	6.112794
O	6.112794	6.112794	4.075196
Sb	4.075196	4.075196	4.075196
