40

O	1.927290	1.927290	0.000000
O	0.000000	1.927290	1.927290
O	1.927290	0.000000	1.927290
Os_pv	1.927290	1.927290	1.927290
Pd	0.000000	0.000000	0.000000
O	1.927290	1.927290	3.854584
O	0.000000	1.927290	5.781874
O	1.927290	0.000000	5.781874
Os_pv	1.927290	1.927290	5.781874
Pd	0.000000	0.000000	3.854584
O	1.927290	5.781874	0.000000
O	0.000000	5.781874	1.927290
O	1.927290	3.854584	1.927290
Os_pv	1.927290	5.781874	1.927290
Pd	0.000000	3.854584	0.000000
O	1.927290	5.781874	3.854584
O	0.000000	5.781874	5.781874
O	1.927290	3.854584	5.781874
Os_pv	1.927290	5.781874	5.781874
Pd	0.000000	3.854584	3.854584
O	5.781874	1.927290	0.000000
O	3.854584	1.927290	1.927290
O	5.781874	0.000000	1.927290
Os_pv	5.781874	1.927290	1.927290
Pd	3.854584	0.000000	0.000000
O	5.781874	1.927290	3.854584
O	3.854584	1.927290	5.781874
O	5.781874	0.000000	5.781874
Os_pv	5.781874	1.927290	5.781874
Pd	3.854584	0.000000	3.854584
O	5.781874	5.781874	0.000000
O	3.854584	5.781874	1.927290
O	5.781874	3.854584	1.927290
Os_pv	5.781874	5.781874	1.927290
Pd	3.854584	3.854584	0.000000
O	5.781874	5.781874	3.854584
O	3.854584	5.781874	5.781874
O	5.781874	3.854584	5.781874
Os_pv	5.781874	5.781874	5.781874
Pd	3.854584	3.854584	3.854584
