112

K	-3.995812	-3.995812	-3.995812
K	0.207571	-0.207571	3.995812
K	-0.207571	-4.410955	0.207571
K	-0.207571	-3.995812	3.995812
O	-4.203383	-2.101692	-1.726662
O	-5.930046	-0.000000	2.101692
O	0.000000	-2.101692	1.726662
O	-2.101692	-1.726662	4.203383
O	-2.476721	-4.203383	2.101692
O	2.101692	-2.476721	4.203383
Pb	-2.015239	-2.015239	-2.015239
Pb	-2.188145	2.015239	2.188145
Pb	-2.188145	-2.015239	2.015239
Pb	-2.015239	2.015239	6.218622
K	0.207571	-8.199195	0.207571
K	4.410955	-4.410955	8.199195
K	3.995812	-8.614338	4.410955
K	3.995812	-8.199195	8.199195
O	0.000000	-6.305075	2.476721
O	-1.726662	-4.203383	6.305075
O	4.203383	-6.305075	5.930046
O	2.101692	-5.930046	8.406767
O	1.726662	-8.406767	6.305075
O	6.305075	-6.680104	8.406767
Pb	2.188145	-6.218622	2.188145
Pb	2.015239	-2.188145	6.391528
Pb	2.015239	-6.218622	6.218622
Pb	2.188145	-2.188145	10.422005
K	-8.199195	-8.199195	-8.199195
K	-3.995812	-4.410955	-0.207571
K	-4.410955	-8.614338	-3.995812
K	-4.410955	-8.199195	-0.207571
O	-8.406767	-6.305075	-5.930046
O	-10.133429	-4.203383	-2.101692
O	-4.203383	-6.305075	-2.476721
O	-6.305075	-5.930046	0.000000
O	-6.680104	-8.406767	-2.101692
O	-2.101692	-6.680104	0.000000
Pb	-6.218622	-6.218622	-6.218622
Pb	-6.391528	-2.188145	-2.015239
Pb	-6.391528	-6.218622	-2.188145
Pb	-6.218622	-2.188145	2.015239
K	-3.995812	-12.402579	-3.995812
K	0.207571	-8.614338	3.995812
K	-0.207571	-12.817721	0.207571
K	-0.207571	-12.402579	3.995812
O	-4.203383	-10.508458	-1.726662
O	-5.930046	-8.406767	2.101692
O	0.000000	-10.508458	1.726662
O	-2.101692	-10.133429	4.203383
O	-2.476721	-12.610150	2.101692
O	2.101692	-10.883488	4.203383
Pb	-2.015239	-10.422005	-2.015239
Pb	-2.188145	-6.391528	2.188145
Pb	-2.188145	-10.422005	2.015239
Pb	-2.015239	-6.391528	6.218622
K	-8.199195	0.207571	0.207571
K	-3.995812	3.995812	8.199195
K	-4.410955	-0.207571	4.410955
K	-4.410955	0.207571	8.199195
O	-8.406767	2.101692	2.476721
O	-10.133429	4.203383	6.305075
O	-4.203383	2.101692	5.930046
O	-6.305075	2.476721	8.406767
O	-6.680104	0.000000	6.305075
O	-2.101692	1.726662	8.406767
Pb	-6.218622	2.188145	2.188145
Pb	-6.391528	6.218622	6.391528
Pb	-6.391528	2.188145	6.218622
Pb	-6.218622	6.218622	10.422005
K	-3.995812	-3.995812	4.410955
K	0.207571	-0.207571	12.402579
K	-0.207571	-4.410955	8.614338
K	-0.207571	-3.995812	12.402579
O	-4.203383	-2.101692	6.680104
O	-5.930046	0.000000	10.508458
O	0.000000	-2.101692	10.133429
O	-2.101692	-1.726662	12.610150
O	-2.476721	-4.203383	10.508458
O	2.101692	-2.476721	12.610150
Pb	-2.015239	-2.015239	6.391528
Pb	-2.188145	2.015239	10.594911
Pb	-2.188145	-2.015239	10.422005
Pb	-2.015239	2.015239	14.625389
K	-12.402579	-3.995812	-3.995812
K	-8.199195	-0.207571	3.995812
K	-8.614338	-4.410955	0.207571
K	-8.614338	-3.995812	3.995812
O	-12.610150	-2.101692	-1.726662
O	-14.336812	0.000000	2.101692
O	-8.406767	-2.101692	1.726662
O	-10.508458	-1.726662	4.203383
O	-10.883488	-4.203383	2.101692
O	-6.305075	-2.476721	4.203383
Pb	-10.422005	-2.015239	-2.015239
Pb	-10.594911	2.015239	2.188145
Pb	-10.594911	-2.015239	2.015239
Pb	-10.422005	2.015239	6.218622
K	-8.199195	-8.199195	0.207571
K	-3.995812	-4.410955	8.199195
K	-4.410955	-8.614338	4.410955
K	-4.410955	-8.199195	8.199195
O	-8.406767	-6.305075	2.476721
O	-10.133429	-4.203383	6.305075
O	-4.203383	-6.305075	5.930046
O	-6.305075	-5.930046	8.406767
O	-6.680104	-8.406767	6.305075
O	-2.101692	-6.680104	8.406767
Pb	-6.218622	-6.218622	2.188145
Pb	-6.391528	-2.188145	6.391528
Pb	-6.391528	-6.218622	6.218622
Pb	-6.218622	-2.188145	10.422005
