40

Pu	0.000000	0.000000	0.000000
B	1.781478	1.781478	1.781478
O	1.781478	1.781478	0.000000
O	1.781478	0.000000	1.781478
O	0.000000	1.781478	1.781478
Pu	0.000000	0.000000	3.562941
B	1.781478	1.781478	5.344418
O	1.781478	1.781478	3.562941
O	1.781478	0.000000	5.344418
O	0.000000	1.781478	5.344418
Pu	0.000000	3.562941	0.000000
B	1.781478	5.344418	1.781478
O	1.781478	5.344418	0.000000
O	1.781478	3.562941	1.781478
O	0.000000	5.344418	1.781478
Pu	0.000000	3.562941	3.562941
B	1.781478	5.344418	5.344418
O	1.781478	5.344418	3.562941
O	1.781478	3.562941	5.344418
O	0.000000	5.344418	5.344418
Pu	3.562941	0.000000	0.000000
B	5.344418	1.781478	1.781478
O	5.344418	1.781478	0.000000
O	5.344418	0.000000	1.781478
O	3.562941	1.781478	1.781478
Pu	3.562941	0.000000	3.562941
B	5.344418	1.781478	5.344418
O	5.344418	1.781478	3.562941
O	5.344418	0.000000	5.344418
O	3.562941	1.781478	5.344418
Pu	3.562941	3.562941	0.000000
B	5.344418	5.344418	1.781478
O	5.344418	5.344418	0.000000
O	5.344418	3.562941	1.781478
O	3.562941	5.344418	1.781478
Pu	3.562941	3.562941	3.562941
B	5.344418	5.344418	5.344418
O	5.344418	5.344418	3.562941
O	5.344418	3.562941	5.344418
O	3.562941	5.344418	5.344418
