112

O	-0.891800	0.891564	-3.660216
O	3.659085	-0.891564	-0.891564
O	0.891800	-0.891564	-3.660216
O	1.383642	1.384326	-1.384326
O	5.442674	0.891564	-0.891564
O	1.383642	3.167454	-3.167454
O	3.167242	3.167454	-1.384326
O	3.167242	1.384326	-3.167454
Rb	0.000000	0.000000	0.000000
Rb	2.275442	-2.275890	-2.275890
Ti	-1.137716	-1.137950	-3.413840
Ti	5.688601	-1.137950	-1.137950
Ti	1.137716	1.137950	-3.413840
Ti	3.413158	1.137950	-1.137950
O	3.659080	5.443345	-3.660216
O	8.209964	3.660217	-0.891564
O	5.442679	3.660217	-3.660216
O	5.934522	5.936107	-1.384326
O	9.993554	5.443345	-0.891564
O	5.934522	7.719234	-3.167454
O	7.718121	7.719234	-1.384326
O	7.718121	5.936107	-3.167454
Rb	4.550879	4.551781	0.000000
Rb	6.826322	2.275891	-2.275890
Ti	3.413163	3.413831	-3.413840
Ti	10.239480	3.413831	-1.137950
Ti	5.688596	5.689731	-3.413840
Ti	7.964038	5.689731	-1.137950
O	-5.442679	0.891564	-8.211997
O	-0.891795	-0.891564	-5.443345
O	-3.659080	-0.891564	-8.211997
O	-3.167237	1.384326	-5.936107
O	0.891795	0.891564	-5.443345
O	-3.167237	3.167454	-7.719234
O	-1.383637	3.167454	-5.936107
O	-1.383637	1.384326	-7.719234
Rb	-4.550879	0.000000	-4.551781
Rb	-2.275437	-2.275890	-6.827671
Ti	-5.688596	-1.137950	-7.965621
Ti	1.137721	-1.137950	-5.689731
Ti	-3.413163	1.137950	-7.965621
Ti	-1.137721	1.137950	-5.689731
O	-0.891800	5.443345	-8.211997
O	3.659085	3.660217	-5.443345
O	0.891800	3.660217	-8.211997
O	1.383642	5.936107	-5.936107
O	5.442674	5.443345	-5.443345
O	1.383642	7.719234	-7.719234
O	3.167242	7.719234	-5.936107
O	3.167242	5.936107	-7.719234
Rb	0.000000	4.551781	-4.551781
Rb	2.275442	2.275891	-6.827671
Ti	-1.137716	3.413831	-7.965621
Ti	5.688601	3.413831	-5.689731
Ti	1.137716	5.689731	-7.965621
Ti	3.413158	5.689731	-5.689731
O	3.659080	-3.660217	-3.660216
O	8.209964	-5.443345	-0.891564
O	5.442679	-5.443345	-3.660216
O	5.934522	-3.167455	-1.384326
O	9.993554	-3.660217	-0.891564
O	5.934522	-1.384327	-3.167454
O	7.718121	-1.384327	-1.384326
O	7.718121	-3.167455	-3.167454
Rb	4.550879	-4.551781	0.000000
Rb	6.826322	-6.827671	-2.275890
Ti	3.413163	-5.689731	-3.413840
Ti	10.239480	-5.689731	-1.137950
Ti	5.688596	-3.413831	-3.413840
Ti	7.964038	-3.413831	-1.137950
O	8.209959	0.891564	-3.660216
O	12.760843	-0.891564	-0.891564
O	9.993559	-0.891564	-3.660216
O	10.485401	1.384326	-1.384326
O	14.544433	0.891564	-0.891564
O	10.485401	3.167454	-3.167454
O	12.269001	3.167454	-1.384326
O	12.269001	1.384326	-3.167454
Rb	9.101759	0.000000	0.000000
Rb	11.377201	-2.275890	-2.275890
Ti	7.964043	-1.137950	-3.413840
Ti	14.790359	-1.137950	-1.137950
Ti	10.239475	1.137950	-3.413840
Ti	12.514917	1.137950	-1.137950
O	-0.891800	-3.660217	-8.211997
O	3.659085	-5.443345	-5.443345
O	0.891800	-5.443345	-8.211997
O	1.383642	-3.167455	-5.936107
O	5.442674	-3.660217	-5.443345
O	1.383642	-1.384327	-7.719234
O	3.167242	-1.384327	-5.936107
O	3.167242	-3.167455	-7.719234
Rb	0.000000	-4.551781	-4.551781
Rb	2.275442	-6.827671	-6.827671
Ti	-1.137716	-5.689731	-7.965621
Ti	5.688601	-5.689731	-5.689731
Ti	1.137716	-3.413831	-7.965621
Ti	3.413158	-3.413831	-5.689731
O	3.659080	0.891564	-8.211997
O	8.209964	-0.891564	-5.443345
O	5.442679	-0.891564	-8.211997
O	5.934522	1.384326	-5.936107
O	9.993554	0.891564	-5.443345
O	5.934522	3.167454	-7.719234
O	7.718121	3.167454	-5.936107
O	7.718121	1.384326	-7.719234
Rb	4.550879	0.000000	-4.551781
Rb	6.826322	-2.275890	-6.827671
Ti	3.413163	-1.137950	-7.965621
Ti	10.239480	-1.137950	-5.689731
Ti	5.688596	1.137950	-7.965621
Ti	7.964038	1.137950	-5.689731
