40

Mo	1.971096	1.971096	1.971096
O	0.000000	1.971096	1.971096
O	1.971096	0.000000	1.971096
O	1.971096	1.971096	0.000000
P	0.000000	0.000000	0.000000
Mo	1.971096	1.971096	5.913289
O	0.000000	1.971096	5.913289
O	1.971096	0.000000	5.913289
O	1.971096	1.971096	3.942193
P	0.000000	0.000000	3.942193
Mo	1.971096	5.913289	1.971096
O	0.000000	5.913289	1.971096
O	1.971096	3.942193	1.971096
O	1.971096	5.913289	0.000000
P	0.000000	3.942193	0.000000
Mo	1.971096	5.913289	5.913289
O	0.000000	5.913289	5.913289
O	1.971096	3.942193	5.913289
O	1.971096	5.913289	3.942193
P	0.000000	3.942193	3.942193
Mo	5.913289	1.971096	1.971096
O	3.942193	1.971096	1.971096
O	5.913289	0.000000	1.971096
O	5.913289	1.971096	0.000000
P	3.942193	0.000000	0.000000
Mo	5.913289	1.971096	5.913289
O	3.942193	1.971096	5.913289
O	5.913289	0.000000	5.913289
O	5.913289	1.971096	3.942193
P	3.942193	0.000000	3.942193
Mo	5.913289	5.913289	1.971096
O	3.942193	5.913289	1.971096
O	5.913289	3.942193	1.971096
O	5.913289	5.913289	0.000000
P	3.942193	3.942193	0.000000
Mo	5.913289	5.913289	5.913289
O	3.942193	5.913289	5.913289
O	5.913289	3.942193	5.913289
O	5.913289	5.913289	3.942193
P	3.942193	3.942193	3.942193
