160

O	0.710653	3.875665	2.006359
O	-2.128498	3.875665	-0.001223
O	5.075037	1.227890	2.084741
O	0.654364	1.322389	2.082294
O	0.054559	2.550279	-0.077158
O	2.891980	2.553276	2.160676
O	3.711751	1.322389	-2.006359
O	1.474134	5.009056	-2.084741
O	2.235886	1.227890	0.077158
O	-0.765212	3.781166	4.089877
O	1.472404	0.094499	4.168258
O	2.292175	3.781166	0.001223
Si	2.946539	0.000000	-1.041759
Si	0.000000	0.000000	3.125276
Si	-1.473269	2.551777	-1.041759
Si	1.473269	2.551777	1.041759
Ca	2.946539	0.000000	2.083518
Ca	1.473269	2.551777	-2.083518
Ca	-1.473269	2.551777	2.083518
Ca	0.000000	0.000000	0.000000
O	0.710653	3.875665	8.256912
O	-2.128498	3.875665	6.249329
O	5.075037	1.227890	8.335293
O	0.654364	1.322389	8.332847
O	0.054559	2.550279	6.173394
O	2.891980	2.553276	8.411228
O	3.711751	1.322389	4.244193
O	1.474134	5.009056	4.165812
O	2.235886	1.227890	6.327711
O	-0.765212	3.781166	10.340429
O	1.472404	0.094499	10.418811
O	2.292175	3.781166	6.251776
Si	2.946539	0.000000	5.208794
Si	0.000000	0.000000	9.375829
Si	-1.473269	2.551777	5.208794
Si	1.473269	2.551777	7.292311
Ca	2.946539	0.000000	8.334070
Ca	1.473269	2.551777	4.167035
Ca	-1.473269	2.551777	8.334070
Ca	0.000000	0.000000	6.250553
O	-2.235886	8.979220	-0.077158
O	-5.075037	8.979220	-2.084741
O	2.128498	6.331445	0.001223
O	-2.292175	6.425944	-0.001223
O	-2.891980	7.653834	-2.160676
O	-0.054559	7.656830	0.077158
O	0.765212	6.425944	-4.089877
O	-1.472404	10.112610	-4.168258
O	-0.710653	6.331445	-2.006359
O	-3.711751	8.884720	2.006359
O	-1.474134	5.198054	2.084741
O	-0.654364	8.884720	-2.082294
Si	0.000000	5.103555	-3.125276
Si	-2.946539	5.103555	1.041759
Si	-4.419808	7.655332	-3.125276
Si	-1.473269	7.655332	-1.041759
Ca	0.000000	5.103555	0.000000
Ca	-1.473269	7.655332	-4.167035
Ca	-4.419808	7.655332	0.000000
Ca	-2.946539	5.103555	-2.083518
O	-2.235886	8.979220	6.173394
O	-5.075037	8.979220	4.165812
O	2.128498	6.331445	6.251776
O	-2.292175	6.425944	6.249329
O	-2.891980	7.653834	4.089877
O	-0.054559	7.656830	6.327711
O	0.765212	6.425944	2.160676
O	-1.472404	10.112610	2.082294
O	-0.710653	6.331445	4.244193
O	-3.711751	8.884720	8.256912
O	-1.474134	5.198054	8.335293
O	-0.654364	8.884720	4.168258
Si	0.000000	5.103555	3.125276
Si	-2.946539	5.103555	7.292311
Si	-4.419808	7.655332	3.125276
Si	-1.473269	7.655332	5.208794
Ca	0.000000	5.103555	6.250553
Ca	-1.473269	7.655332	2.083518
Ca	-4.419808	7.655332	6.250553
Ca	-2.946539	5.103555	4.167035
O	6.603730	3.875665	-0.077158
O	3.764579	3.875665	-2.084741
O	10.968114	1.227890	0.001223
O	6.547441	1.322389	-0.001223
O	5.947636	2.550279	-2.160676
O	8.785057	2.553276	0.077158
O	9.604828	1.322389	-4.089877
O	7.367212	5.009056	-4.168258
O	8.128963	1.227890	-2.006359
O	5.127866	3.781166	2.006359
O	7.365482	0.094499	2.084741
O	8.185253	3.781166	-2.082294
Si	8.839616	0.000000	-3.125276
Si	5.893077	0.000000	1.041759
Si	4.419808	2.551777	-3.125276
Si	7.366347	2.551777	-1.041759
Ca	8.839616	0.000000	0.000000
Ca	7.366347	2.551777	-4.167035
Ca	4.419808	2.551777	0.000000
Ca	5.893077	0.000000	-2.083518
O	6.603730	3.875665	6.173394
O	3.764579	3.875665	4.165812
O	10.968114	1.227890	6.251776
O	6.547441	1.322389	6.249329
O	5.947636	2.550279	4.089877
O	8.785057	2.553276	6.327711
O	9.604828	1.322389	2.160676
O	7.367212	5.009056	2.082294
O	8.128963	1.227890	4.244193
O	5.127866	3.781166	8.256912
O	7.365482	0.094499	8.335293
O	8.185253	3.781166	4.168258
Si	8.839616	0.000000	3.125276
Si	5.893077	0.000000	7.292311
Si	4.419808	2.551777	3.125276
Si	7.366347	2.551777	5.208794
Ca	8.839616	0.000000	6.250553
Ca	7.366347	2.551777	2.083518
Ca	4.419808	2.551777	6.250553
Ca	5.893077	0.000000	4.167035
O	3.657191	8.979220	-2.160676
O	0.818041	8.979220	-4.168258
O	8.021575	6.331445	-2.082294
O	3.600902	6.425944	-2.084741
O	3.001098	7.653834	-4.244193
O	5.838518	7.656830	-2.006359
O	6.658289	6.425944	-6.173394
O	4.420673	10.112610	-6.251776
O	5.182425	6.331445	-4.089877
O	2.181327	8.884720	-0.077158
O	4.418943	5.198054	0.001223
O	5.238714	8.884720	-4.165812
Si	5.893077	5.103555	-5.208794
Si	2.946539	5.103555	-1.041759
Si	1.473269	7.655332	-5.208794
Si	4.419808	7.655332	-3.125276
Ca	5.893077	5.103555	-2.083518
Ca	4.419808	7.655332	-6.250553
Ca	1.473269	7.655332	-2.083518
Ca	2.946539	5.103555	-4.167035
O	3.657191	8.979220	4.089877
O	0.818041	8.979220	2.082294
O	8.021575	6.331445	4.168258
O	3.600902	6.425944	4.165812
O	3.001098	7.653834	2.006359
O	5.838518	7.656830	4.244193
O	6.658289	6.425944	0.077158
O	4.420673	10.112610	-0.001223
O	5.182425	6.331445	2.160676
O	2.181327	8.884720	6.173394
O	4.418943	5.198054	6.251776
O	5.238714	8.884720	2.084741
Si	5.893077	5.103555	1.041759
Si	2.946539	5.103555	5.208794
Si	1.473269	7.655332	1.041759
Si	4.419808	7.655332	3.125276
Ca	5.893077	5.103555	4.167035
Ca	4.419808	7.655332	0.000000
Ca	1.473269	7.655332	4.167035
Ca	2.946539	5.103555	2.083518
