40

Ni	0.000000	0.000000	0.000000
O	0.000000	1.758626	1.758626
O	1.758626	0.000000	1.758626
O	1.758626	1.758626	0.000000
Si	1.758626	1.758626	1.758626
Ni	0.000000	0.000000	3.517253
O	0.000000	1.758626	5.275879
O	1.758626	0.000000	5.275879
O	1.758626	1.758626	3.517253
Si	1.758626	1.758626	5.275879
Ni	0.000000	3.517253	0.000000
O	0.000000	5.275879	1.758626
O	1.758626	3.517253	1.758626
O	1.758626	5.275879	0.000000
Si	1.758626	5.275879	1.758626
Ni	0.000000	3.517253	3.517253
O	0.000000	5.275879	5.275879
O	1.758626	3.517253	5.275879
O	1.758626	5.275879	3.517253
Si	1.758626	5.275879	5.275879
Ni	3.517253	0.000000	0.000000
O	3.517253	1.758626	1.758626
O	5.275879	0.000000	1.758626
O	5.275879	1.758626	0.000000
Si	5.275879	1.758626	1.758626
Ni	3.517253	0.000000	3.517253
O	3.517253	1.758626	5.275879
O	5.275879	0.000000	5.275879
O	5.275879	1.758626	3.517253
Si	5.275879	1.758626	5.275879
Ni	3.517253	3.517253	0.000000
O	3.517253	5.275879	1.758626
O	5.275879	3.517253	1.758626
O	5.275879	5.275879	0.000000
Si	5.275879	5.275879	1.758626
Ni	3.517253	3.517253	3.517253
O	3.517253	5.275879	5.275879
O	5.275879	3.517253	5.275879
O	5.275879	5.275879	3.517253
Si	5.275879	5.275879	5.275879
