40

Ga	0.000000	0.000000	0.000000
O	0.000000	1.980503	1.980503
O	1.980503	0.000000	1.980503
O	1.980503	1.980503	0.000000
Pt	1.980503	1.980503	1.980503
Ga	0.000000	0.000000	3.961007
O	0.000000	1.980503	5.941510
O	1.980503	0.000000	5.941510
O	1.980503	1.980503	3.961007
Pt	1.980503	1.980503	5.941510
Ga	0.000000	3.961007	0.000000
O	0.000000	5.941510	1.980503
O	1.980503	3.961007	1.980503
O	1.980503	5.941510	0.000000
Pt	1.980503	5.941510	1.980503
Ga	0.000000	3.961007	3.961007
O	0.000000	5.941510	5.941510
O	1.980503	3.961007	5.941510
O	1.980503	5.941510	3.961007
Pt	1.980503	5.941510	5.941510
Ga	3.961007	0.000000	0.000000
O	3.961007	1.980503	1.980503
O	5.941510	0.000000	1.980503
O	5.941510	1.980503	0.000000
Pt	5.941510	1.980503	1.980503
Ga	3.961007	0.000000	3.961007
O	3.961007	1.980503	5.941510
O	5.941510	0.000000	5.941510
O	5.941510	1.980503	3.961007
Pt	5.941510	1.980503	5.941510
Ga	3.961007	3.961007	0.000000
O	3.961007	5.941510	1.980503
O	5.941510	3.961007	1.980503
O	5.941510	5.941510	0.000000
Pt	5.941510	5.941510	1.980503
Ga	3.961007	3.961007	3.961007
O	3.961007	5.941510	5.941510
O	5.941510	3.961007	5.941510
O	5.941510	5.941510	3.961007
Pt	5.941510	5.941510	5.941510
