40

Ca	2.168544	2.168544	2.168544
Cd	0.000000	0.000000	0.000000
O	0.000000	2.168544	2.168544
O	2.168544	0.000000	2.168544
O	2.168544	2.168544	0.000000
Ca	2.168544	2.168544	6.505632
Cd	0.000000	0.000000	4.337088
O	0.000000	2.168544	6.505632
O	2.168544	0.000000	6.505632
O	2.168544	2.168544	4.337088
Ca	2.168544	6.505632	2.168544
Cd	0.000000	4.337088	0.000000
O	0.000000	6.505632	2.168544
O	2.168544	4.337088	2.168544
O	2.168544	6.505632	0.000000
Ca	2.168544	6.505632	6.505632
Cd	0.000000	4.337088	4.337088
O	0.000000	6.505632	6.505632
O	2.168544	4.337088	6.505632
O	2.168544	6.505632	4.337088
Ca	6.505632	2.168544	2.168544
Cd	4.337088	0.000000	0.000000
O	4.337088	2.168544	2.168544
O	6.505632	0.000000	2.168544
O	6.505632	2.168544	0.000000
Ca	6.505632	2.168544	6.505632
Cd	4.337088	0.000000	4.337088
O	4.337088	2.168544	6.505632
O	6.505632	0.000000	6.505632
O	6.505632	2.168544	4.337088
Ca	6.505632	6.505632	2.168544
Cd	4.337088	4.337088	0.000000
O	4.337088	6.505632	2.168544
O	6.505632	4.337088	2.168544
O	6.505632	6.505632	0.000000
Ca	6.505632	6.505632	6.505632
Cd	4.337088	4.337088	4.337088
O	4.337088	6.505632	6.505632
O	6.505632	4.337088	6.505632
O	6.505632	6.505632	4.337088
