40

Al	0.000000	0.000000	0.000000
O	2.051860	0.000000	2.051860
O	0.000000	2.051860	2.051860
O	2.051860	2.051860	0.000000
Te	2.051860	2.051860	2.051860
Al	0.000000	0.000000	4.103727
O	2.051860	0.000000	6.155587
O	0.000000	2.051860	6.155587
O	2.051860	2.051860	4.103727
Te	2.051860	2.051860	6.155587
Al	0.000000	4.103727	0.000000
O	2.051860	4.103727	2.051860
O	0.000000	6.155587	2.051860
O	2.051860	6.155587	0.000000
Te	2.051860	6.155587	2.051860
Al	0.000000	4.103727	4.103727
O	2.051860	4.103727	6.155587
O	0.000000	6.155587	6.155587
O	2.051860	6.155587	4.103727
Te	2.051860	6.155587	6.155587
Al	4.103727	0.000000	0.000000
O	6.155587	0.000000	2.051860
O	4.103727	2.051860	2.051860
O	6.155587	2.051860	0.000000
Te	6.155587	2.051860	2.051860
Al	4.103727	0.000000	4.103727
O	6.155587	0.000000	6.155587
O	4.103727	2.051860	6.155587
O	6.155587	2.051860	4.103727
Te	6.155587	2.051860	6.155587
Al	4.103727	4.103727	0.000000
O	6.155587	4.103727	2.051860
O	4.103727	6.155587	2.051860
O	6.155587	6.155587	0.000000
Te	6.155587	6.155587	2.051860
Al	4.103727	4.103727	4.103727
O	6.155587	4.103727	6.155587
O	4.103727	6.155587	6.155587
O	6.155587	6.155587	4.103727
Te	6.155587	6.155587	6.155587
