112

O	0.947713	0.947271	-0.947271
O	1.218765	-1.219872	-3.114413
O	-1.218765	1.219872	-3.114413
O	3.114192	-1.219872	-1.219872
O	3.385234	3.387015	-0.947271
O	3.385234	0.947271	-3.387015
O	0.947713	3.387015	-3.387015
O	5.551713	1.219872	-1.219872
Si	0.000000	0.000000	0.000000
Si	2.166479	-2.167143	-2.167143
Zr	-1.083239	-1.083566	-3.250709
Zr	3.249708	1.083566	-1.083566
Zr	1.083239	1.083566	-3.250709
Zr	5.416187	-1.083566	-1.083566
O	5.280663	5.281555	-0.947271
O	5.551716	3.114412	-3.114413
O	3.114185	5.554156	-3.114413
O	7.447142	3.114412	-1.219872
O	7.718184	7.721299	-0.947271
O	7.718184	5.281555	-3.387015
O	5.280663	7.721299	-3.387015
O	9.884663	5.554156	-1.219872
Si	4.332950	4.334284	0.000000
Si	6.499429	2.167142	-2.167143
Zr	3.249711	3.250718	-3.250709
Zr	7.582658	5.417851	-1.083566
Zr	5.416189	5.417851	-3.250709
Zr	9.749137	3.250718	-1.083566
O	-3.385237	0.947271	-5.281555
O	-3.114185	-1.219872	-7.448698
O	-5.551716	1.219872	-7.448698
O	-1.218758	-1.219872	-5.554156
O	-0.947716	3.387015	-5.281555
O	-0.947716	0.947271	-7.721299
O	-3.385237	3.387015	-7.721299
O	1.218763	1.219872	-5.554156
Si	-4.332950	0.000000	-4.334284
Si	-2.166471	-2.167143	-6.501427
Zr	-5.416189	-1.083566	-7.584993
Zr	-1.083242	1.083566	-5.417851
Zr	-3.249711	1.083566	-7.584993
Zr	1.083237	-1.083566	-5.417851
O	0.947713	5.281555	-5.281555
O	1.218765	3.114412	-7.448698
O	-1.218765	5.554156	-7.448698
O	3.114192	3.114412	-5.554156
O	3.385234	7.721299	-5.281555
O	3.385234	5.281555	-7.721299
O	0.947713	7.721299	-7.721299
O	5.551713	5.554156	-5.554156
Si	0.000000	4.334284	-4.334284
Si	2.166479	2.167142	-6.501427
Zr	-1.083239	3.250718	-7.584993
Zr	3.249708	5.417851	-5.417851
Zr	1.083239	5.417851	-7.584993
Zr	5.416187	3.250718	-5.417851
O	5.280663	-3.387013	-0.947271
O	5.551716	-5.554156	-3.114413
O	3.114185	-3.114412	-3.114413
O	7.447142	-5.554156	-1.219872
O	7.718184	-0.947269	-0.947271
O	7.718184	-3.387013	-3.387015
O	5.280663	-0.947270	-3.387015
O	9.884663	-3.114412	-1.219872
Si	4.332950	-4.334284	0.000000
Si	6.499429	-6.501427	-2.167143
Zr	3.249711	-5.417851	-3.250709
Zr	7.582658	-3.250718	-1.083566
Zr	5.416189	-3.250718	-3.250709
Zr	9.749137	-5.417851	-1.083566
O	9.613613	0.947271	-0.947271
O	9.884666	-1.219872	-3.114413
O	7.447135	1.219872	-3.114413
O	11.780092	-1.219872	-1.219872
O	12.051134	3.387015	-0.947271
O	12.051134	0.947271	-3.387015
O	9.613613	3.387015	-3.387015
O	14.217613	1.219872	-1.219872
Si	8.665900	0.000000	0.000000
Si	10.832379	-2.167143	-2.167143
Zr	7.582661	-1.083566	-3.250709
Zr	11.915608	1.083566	-1.083566
Zr	9.749140	1.083566	-3.250709
Zr	14.082087	-1.083566	-1.083566
O	0.947713	-3.387013	-5.281555
O	1.218765	-5.554156	-7.448698
O	-1.218765	-3.114412	-7.448698
O	3.114192	-5.554156	-5.554156
O	3.385234	-0.947269	-5.281555
O	3.385234	-3.387013	-7.721299
O	0.947713	-0.947270	-7.721299
O	5.551713	-3.114412	-5.554156
Si	0.000000	-4.334284	-4.334284
Si	2.166479	-6.501427	-6.501427
Zr	-1.083239	-5.417851	-7.584993
Zr	3.249708	-3.250718	-5.417851
Zr	1.083239	-3.250718	-7.584993
Zr	5.416187	-5.417851	-5.417851
O	5.280663	0.947271	-5.281555
O	5.551716	-1.219872	-7.448698
O	3.114185	1.219872	-7.448698
O	7.447142	-1.219872	-5.554156
O	7.718184	3.387015	-5.281555
O	7.718184	0.947271	-7.721299
O	5.280663	3.387015	-7.721299
O	9.884663	1.219872	-5.554156
Si	4.332950	0.000000	-4.334284
Si	6.499429	-2.167143	-6.501427
Zr	3.249711	-1.083566	-7.584993
Zr	7.582658	1.083566	-5.417851
Zr	5.416189	1.083566	-7.584993
Zr	9.749137	-1.083566	-5.417851
