40

Ag	2.020935	2.020935	2.020935
O	2.020935	2.020935	0.000000
O	2.020935	0.000000	2.020935
O	0.000000	2.020935	2.020935
Pt	0.000000	0.000000	0.000000
Ag	2.020935	2.020935	6.062805
O	2.020935	2.020935	4.041870
O	2.020935	0.000000	6.062805
O	0.000000	2.020935	6.062805
Pt	0.000000	0.000000	4.041870
Ag	2.020935	6.062805	2.020935
O	2.020935	6.062805	0.000000
O	2.020935	4.041870	2.020935
O	0.000000	6.062805	2.020935
Pt	0.000000	4.041870	0.000000
Ag	2.020935	6.062805	6.062805
O	2.020935	6.062805	4.041870
O	2.020935	4.041870	6.062805
O	0.000000	6.062805	6.062805
Pt	0.000000	4.041870	4.041870
Ag	6.062805	2.020935	2.020935
O	6.062805	2.020935	0.000000
O	6.062805	0.000000	2.020935
O	4.041870	2.020935	2.020935
Pt	4.041870	0.000000	0.000000
Ag	6.062805	2.020935	6.062805
O	6.062805	2.020935	4.041870
O	6.062805	0.000000	6.062805
O	4.041870	2.020935	6.062805
Pt	4.041870	0.000000	4.041870
Ag	6.062805	6.062805	2.020935
O	6.062805	6.062805	0.000000
O	6.062805	4.041870	2.020935
O	4.041870	6.062805	2.020935
Pt	4.041870	4.041870	0.000000
Ag	6.062805	6.062805	6.062805
O	6.062805	6.062805	4.041870
O	6.062805	4.041870	6.062805
O	4.041870	6.062805	6.062805
Pt	4.041870	4.041870	4.041870
