40

C	0.000000	0.000000	0.000000
O	0.000000	1.939965	1.939965
O	1.939965	0.000000	1.939965
O	1.939965	1.939965	0.000000
Pt	1.939965	1.939965	1.939965
C	0.000000	0.000000	3.879930
O	0.000000	1.939965	5.819895
O	1.939965	0.000000	5.819895
O	1.939965	1.939965	3.879930
Pt	1.939965	1.939965	5.819895
C	0.000000	3.879930	0.000000
O	0.000000	5.819895	1.939965
O	1.939965	3.879930	1.939965
O	1.939965	5.819895	0.000000
Pt	1.939965	5.819895	1.939965
C	0.000000	3.879930	3.879930
O	0.000000	5.819895	5.819895
O	1.939965	3.879930	5.819895
O	1.939965	5.819895	3.879930
Pt	1.939965	5.819895	5.819895
C	3.879930	0.000000	0.000000
O	3.879930	1.939965	1.939965
O	5.819895	0.000000	1.939965
O	5.819895	1.939965	0.000000
Pt	5.819895	1.939965	1.939965
C	3.879930	0.000000	3.879930
O	3.879930	1.939965	5.819895
O	5.819895	0.000000	5.819895
O	5.819895	1.939965	3.879930
Pt	5.819895	1.939965	5.819895
C	3.879930	3.879930	0.000000
O	3.879930	5.819895	1.939965
O	5.819895	3.879930	1.939965
O	5.819895	5.819895	0.000000
Pt	5.819895	5.819895	1.939965
C	3.879930	3.879930	3.879930
O	3.879930	5.819895	5.819895
O	5.819895	3.879930	5.819895
O	5.819895	5.819895	3.879930
Pt	5.819895	5.819895	5.819895
