40

Ir	0.000000	0.000000	0.000000
Ni	1.835450	1.835450	1.835450
O	1.835450	1.835450	0.000000
O	0.000000	1.835450	1.835450
O	1.835450	0.000000	1.835450
Ir	0.000000	0.000000	3.670897
Ni	1.835450	1.835450	5.506347
O	1.835450	1.835450	3.670897
O	0.000000	1.835450	5.506347
O	1.835450	0.000000	5.506347
Ir	0.000000	3.670897	0.000000
Ni	1.835450	5.506347	1.835450
O	1.835450	5.506347	0.000000
O	0.000000	5.506347	1.835450
O	1.835450	3.670897	1.835450
Ir	0.000000	3.670897	3.670897
Ni	1.835450	5.506347	5.506347
O	1.835450	5.506347	3.670897
O	0.000000	5.506347	5.506347
O	1.835450	3.670897	5.506347
Ir	3.670897	0.000000	0.000000
Ni	5.506347	1.835450	1.835450
O	5.506347	1.835450	0.000000
O	3.670897	1.835450	1.835450
O	5.506347	0.000000	1.835450
Ir	3.670897	0.000000	3.670897
Ni	5.506347	1.835450	5.506347
O	5.506347	1.835450	3.670897
O	3.670897	1.835450	5.506347
O	5.506347	0.000000	5.506347
Ir	3.670897	3.670897	0.000000
Ni	5.506347	5.506347	1.835450
O	5.506347	5.506347	0.000000
O	3.670897	5.506347	1.835450
O	5.506347	3.670897	1.835450
Ir	3.670897	3.670897	3.670897
Ni	5.506347	5.506347	5.506347
O	5.506347	5.506347	3.670897
O	3.670897	5.506347	5.506347
O	5.506347	3.670897	5.506347
