176

O	5.509170	3.895571	9.542162
O	3.305502	2.337343	5.725297
O	4.232997	5.700352	11.752557
O	2.029329	4.142123	7.935693
O	6.785342	2.090791	11.752557
O	8.061515	5.700352	9.542162
O	2.956825	2.090791	9.542162
O	4.232997	5.700352	7.331766
O	6.785342	2.090791	7.331766
O	5.857847	4.142123	5.725297
O	0.753157	0.532562	5.725297
O	4.581674	0.532562	3.514901
O	4.581674	0.532562	7.935693
O	2.029329	4.142123	3.514901
Zr	1.101834	3.116457	1.908432
Zr	3.305502	0.000000	1.908432
Zr	0.000000	0.000000	3.816865
Zr	0.000000	0.000000	0.000000
Nd	3.305502	0.000000	5.725297
Nd	1.101834	3.116457	5.725297
Nd	4.407336	3.116457	3.816865
Nd	4.407336	3.116457	7.633729
O	5.509170	3.895571	17.175891
O	3.305502	2.337343	13.359026
O	4.232997	5.700352	19.386286
O	2.029329	4.142123	15.569422
O	6.785342	2.090791	19.386286
O	8.061515	5.700352	17.175891
O	2.956825	2.090791	17.175891
O	4.232997	5.700352	14.965495
O	6.785342	2.090791	14.965495
O	5.857847	4.142123	13.359026
O	0.753157	0.532562	13.359026
O	4.581674	0.532562	11.148631
O	4.581674	0.532562	15.569422
O	2.029329	4.142123	11.148631
Zr	1.101834	3.116457	9.542162
Zr	3.305502	0.000000	9.542162
Zr	0.000000	0.000000	11.450594
Zr	0.000000	0.000000	7.633729
Nd	3.305502	0.000000	13.359026
Nd	1.101834	3.116457	13.359026
Nd	4.407336	3.116457	11.450594
Nd	4.407336	3.116457	15.267458
O	7.712837	10.128485	13.359026
O	5.509170	8.570257	9.542162
O	6.436665	11.933265	15.569422
O	4.232997	10.375037	11.752557
O	8.989010	8.323705	15.569422
O	10.265182	11.933265	13.359026
O	5.160492	8.323705	13.359026
O	6.436665	11.933265	11.148631
O	8.989010	8.323705	11.148631
O	8.061515	10.375037	9.542162
O	2.956825	6.765476	9.542162
O	6.785342	6.765476	7.331766
O	6.785342	6.765476	11.752557
O	4.232997	10.375037	7.331766
Zr	3.305502	9.349371	5.725297
Zr	5.509170	6.232914	5.725297
Zr	2.203668	6.232914	7.633729
Zr	2.203668	6.232914	3.816865
Nd	5.509170	6.232914	9.542162
Nd	3.305502	9.349371	9.542162
Nd	6.611003	9.349371	7.633729
Nd	6.611003	9.349371	11.450594
O	7.712837	10.128485	20.992755
O	5.509170	8.570257	17.175891
O	6.436665	11.933265	23.203151
O	4.232997	10.375037	19.386286
O	8.989010	8.323705	23.203151
O	10.265182	11.933265	20.992755
O	5.160492	8.323705	20.992755
O	6.436665	11.933265	18.782360
O	8.989010	8.323705	18.782360
O	8.061515	10.375037	17.175891
O	2.956825	6.765476	17.175891
O	6.785342	6.765476	14.965495
O	6.785342	6.765476	19.386286
O	4.232997	10.375037	14.965495
Zr	3.305502	9.349371	13.359026
Zr	5.509170	6.232914	13.359026
Zr	2.203668	6.232914	15.267458
Zr	2.203668	6.232914	11.450594
Nd	5.509170	6.232914	17.175891
Nd	3.305502	9.349371	17.175891
Nd	6.611003	9.349371	15.267458
Nd	6.611003	9.349371	19.084323
O	12.120173	3.895571	13.359026
O	9.916505	2.337343	9.542162
O	10.844000	5.700352	15.569422
O	8.640333	4.142123	11.752557
O	13.396345	2.090791	15.569422
O	14.672518	5.700352	13.359026
O	9.567828	2.090791	13.359026
O	10.844000	5.700352	11.148631
O	13.396345	2.090791	11.148631
O	12.468850	4.142123	9.542162
O	7.364160	0.532562	9.542162
O	11.192678	0.532562	7.331766
O	11.192678	0.532562	11.752557
O	8.640333	4.142123	7.331766
Zr	7.712837	3.116457	5.725297
Zr	9.916505	0.000000	5.725297
Zr	6.611003	0.000000	7.633729
Zr	6.611003	0.000000	3.816865
Nd	9.916505	0.000000	9.542162
Nd	7.712837	3.116457	9.542162
Nd	11.018339	3.116457	7.633729
Nd	11.018339	3.116457	11.450594
O	12.120173	3.895571	20.992755
O	9.916505	2.337343	17.175891
O	10.844000	5.700352	23.203151
O	8.640333	4.142123	19.386286
O	13.396345	2.090791	23.203151
O	14.672518	5.700352	20.992755
O	9.567828	2.090791	20.992755
O	10.844000	5.700352	18.782360
O	13.396345	2.090791	18.782360
O	12.468850	4.142123	17.175891
O	7.364160	0.532562	17.175891
O	11.192678	0.532562	14.965495
O	11.192678	0.532562	19.386286
O	8.640333	4.142123	14.965495
Zr	7.712837	3.116457	13.359026
Zr	9.916505	0.000000	13.359026
Zr	6.611003	0.000000	15.267458
Zr	6.611003	0.000000	11.450594
Nd	9.916505	0.000000	17.175891
Nd	7.712837	3.116457	17.175891
Nd	11.018339	3.116457	15.267458
Nd	11.018339	3.116457	19.084323
O	14.323841	10.128485	17.175891
O	12.120173	8.570257	13.359026
O	13.047668	11.933265	19.386286
O	10.844000	10.375037	15.569422
O	15.600013	8.323705	19.386286
O	16.876186	11.933265	17.175891
O	11.771496	8.323705	17.175891
O	13.047668	11.933265	14.965495
O	15.600013	8.323705	14.965495
O	14.672518	10.375037	13.359026
O	9.567828	6.765476	13.359026
O	13.396345	6.765476	11.148631
O	13.396345	6.765476	15.569422
O	10.844000	10.375037	11.148631
Zr	9.916505	9.349371	9.542162
Zr	12.120173	6.232914	9.542162
Zr	8.814671	6.232914	11.450594
Zr	8.814671	6.232914	7.633729
Nd	12.120173	6.232914	13.359026
Nd	9.916505	9.349371	13.359026
Nd	13.222007	9.349371	11.450594
Nd	13.222007	9.349371	15.267458
O	14.323841	10.128485	24.809620
O	12.120173	8.570257	20.992755
O	13.047668	11.933265	27.020016
O	10.844000	10.375037	23.203151
O	15.600013	8.323705	27.020016
O	16.876186	11.933265	24.809620
O	11.771496	8.323705	24.809620
O	13.047668	11.933265	22.599224
O	15.600013	8.323705	22.599224
O	14.672518	10.375037	20.992755
O	9.567828	6.765476	20.992755
O	13.396345	6.765476	18.782360
O	13.396345	6.765476	23.203151
O	10.844000	10.375037	18.782360
Zr	9.916505	9.349371	17.175891
Zr	12.120173	6.232914	17.175891
Zr	8.814671	6.232914	19.084323
Zr	8.814671	6.232914	15.267458
Nd	12.120173	6.232914	20.992755
Nd	9.916505	9.349371	20.992755
Nd	13.222007	9.349371	19.084323
Nd	13.222007	9.349371	22.901188
