112

Mg	0.000000	0.000000	0.000000
Mg	2.134913	-2.135350	-2.135350
Mo	-1.067456	-1.067675	-3.203025
Mo	1.067456	1.067675	-3.203025
Mo	3.202369	1.067675	-1.067675
Mo	5.337282	-1.067675	-1.067675
O	-1.056976	1.056565	-3.214134
O	3.212849	-1.056565	-1.056565
O	1.056976	-1.056565	-3.214134
O	1.077937	1.078785	-1.078785
O	5.326802	1.056565	-1.056565
O	1.077937	3.191925	-3.191925
O	3.191889	3.191925	-1.078785
O	3.191889	1.078785	-3.191925
Mg	4.269826	4.270706	0.000000
Mg	6.404739	2.135356	-2.135350
Mo	3.202370	3.203031	-3.203025
Mo	5.337282	5.338381	-3.203025
Mo	7.472195	5.338381	-1.067675
Mo	9.607108	3.203031	-1.067675
O	3.212850	5.327271	-3.214134
O	7.482675	3.214141	-1.056565
O	5.326802	3.214141	-3.214134
O	5.347762	5.349491	-1.078785
O	9.596628	5.327271	-1.056565
O	5.347762	7.462631	-3.191925
O	7.461715	7.462631	-1.078785
O	7.461715	5.349491	-3.191925
Mg	-4.269826	0.000000	-4.270706
Mg	-2.134913	-2.135350	-6.406056
Mo	-5.337282	-1.067675	-7.473730
Mo	-3.202370	1.067675	-7.473730
Mo	-1.067457	1.067675	-5.338381
Mo	1.067456	-1.067675	-5.338381
O	-5.326802	1.056565	-7.484840
O	-1.056977	-1.056565	-5.327271
O	-3.212850	-1.056565	-7.484840
O	-3.191889	1.078785	-5.349491
O	1.056976	1.056565	-5.327271
O	-3.191889	3.191925	-7.462631
O	-1.077937	3.191925	-5.349491
O	-1.077937	1.078785	-7.462631
Mg	0.000000	4.270706	-4.270706
Mg	2.134913	2.135356	-6.406056
Mo	-1.067456	3.203031	-7.473730
Mo	1.067456	5.338381	-7.473730
Mo	3.202369	5.338381	-5.338381
Mo	5.337282	3.203031	-5.338381
O	-1.056976	5.327271	-7.484840
O	3.212849	3.214141	-5.327271
O	1.056976	3.214141	-7.484840
O	1.077937	5.349491	-5.349491
O	5.326802	5.327271	-5.327271
O	1.077937	7.462631	-7.462631
O	3.191889	7.462631	-5.349491
O	3.191889	5.349491	-7.462631
Mg	4.269826	-4.270706	0.000000
Mg	6.404739	-6.406056	-2.135350
Mo	3.202370	-5.338381	-3.203025
Mo	5.337282	-3.203031	-3.203025
Mo	7.472195	-3.203031	-1.067675
Mo	9.607108	-5.338381	-1.067675
O	3.212850	-3.214141	-3.214134
O	7.482675	-5.327271	-1.056565
O	5.326802	-5.327271	-3.214134
O	5.347762	-3.191921	-1.078785
O	9.596628	-3.214141	-1.056565
O	5.347762	-1.078781	-3.191925
O	7.461715	-1.078781	-1.078785
O	7.461715	-3.191921	-3.191925
Mg	8.539652	0.000000	0.000000
Mg	10.674565	-2.135350	-2.135350
Mo	7.472196	-1.067675	-3.203025
Mo	9.607108	1.067675	-3.203025
Mo	11.742021	1.067675	-1.067675
Mo	13.876934	-1.067675	-1.067675
O	7.482676	1.056565	-3.214134
O	11.752501	-1.056565	-1.056565
O	9.596628	-1.056565	-3.214134
O	9.617588	1.078785	-1.078785
O	13.866454	1.056565	-1.056565
O	9.617588	3.191925	-3.191925
O	11.731541	3.191925	-1.078785
O	11.731541	1.078785	-3.191925
Mg	0.000000	-4.270706	-4.270706
Mg	2.134913	-6.406056	-6.406056
Mo	-1.067456	-5.338381	-7.473730
Mo	1.067456	-3.203031	-7.473730
Mo	3.202369	-3.203031	-5.338381
Mo	5.337282	-5.338381	-5.338381
O	-1.056976	-3.214141	-7.484840
O	3.212849	-5.327271	-5.327271
O	1.056976	-5.327271	-7.484840
O	1.077937	-3.191921	-5.349491
O	5.326802	-3.214141	-5.327271
O	1.077937	-1.078781	-7.462631
O	3.191889	-1.078781	-5.349491
O	3.191889	-3.191921	-7.462631
Mg	4.269826	0.000000	-4.270706
Mg	6.404739	-2.135350	-6.406056
Mo	3.202370	-1.067675	-7.473730
Mo	5.337282	1.067675	-7.473730
Mo	7.472195	1.067675	-5.338381
Mo	9.607108	-1.067675	-5.338381
O	3.212850	1.056565	-7.484840
O	7.482675	-1.056565	-5.327271
O	5.326802	-1.056565	-7.484840
O	5.347762	1.078785	-5.349491
O	9.596628	1.056565	-5.327271
O	5.347762	3.191925	-7.462631
O	7.461715	3.191925	-5.349491
O	7.461715	1.078785	-7.462631
