40

B	0.000000	0.000000	0.000000
Mo_pv	1.933610	1.933610	1.933610
O	1.933610	0.000000	1.933610
O	0.000000	1.933610	1.933610
O	1.933610	1.933610	0.000000
B	0.000000	0.000000	3.867217
Mo_pv	1.933610	1.933610	5.800827
O	1.933610	0.000000	5.800827
O	0.000000	1.933610	5.800827
O	1.933610	1.933610	3.867217
B	0.000000	3.867217	0.000000
Mo_pv	1.933610	5.800827	1.933610
O	1.933610	3.867217	1.933610
O	0.000000	5.800827	1.933610
O	1.933610	5.800827	0.000000
B	0.000000	3.867217	3.867217
Mo_pv	1.933610	5.800827	5.800827
O	1.933610	3.867217	5.800827
O	0.000000	5.800827	5.800827
O	1.933610	5.800827	3.867217
B	3.867217	0.000000	0.000000
Mo_pv	5.800827	1.933610	1.933610
O	5.800827	0.000000	1.933610
O	3.867217	1.933610	1.933610
O	5.800827	1.933610	0.000000
B	3.867217	0.000000	3.867217
Mo_pv	5.800827	1.933610	5.800827
O	5.800827	0.000000	5.800827
O	3.867217	1.933610	5.800827
O	5.800827	1.933610	3.867217
B	3.867217	3.867217	0.000000
Mo_pv	5.800827	5.800827	1.933610
O	5.800827	3.867217	1.933610
O	3.867217	5.800827	1.933610
O	5.800827	5.800827	0.000000
B	3.867217	3.867217	3.867217
Mo_pv	5.800827	5.800827	5.800827
O	5.800827	3.867217	5.800827
O	3.867217	5.800827	5.800827
O	5.800827	5.800827	3.867217
