40

Sr	1.972251	1.972251	1.972251
Ti	0.000000	0.000000	0.000000
O	1.972251	0.000000	0.000000
O	0.000000	0.000000	1.972251
O	0.000000	1.972251	0.000000
Sr	1.972251	1.972251	5.916752
Ti	0.000000	0.000000	3.944501
O	1.972251	0.000000	3.944501
O	0.000000	0.000000	5.916752
O	0.000000	1.972251	3.944501
Sr	1.972251	5.916752	1.972251
Ti	0.000000	3.944501	0.000000
O	1.972251	3.944501	0.000000
O	0.000000	3.944501	1.972251
O	0.000000	5.916752	0.000000
Sr	1.972251	5.916752	5.916752
Ti	0.000000	3.944501	3.944501
O	1.972251	3.944501	3.944501
O	0.000000	3.944501	5.916752
O	0.000000	5.916752	3.944501
Sr	5.916752	1.972251	1.972251
Ti	3.944501	0.000000	0.000000
O	5.916752	0.000000	0.000000
O	3.944501	0.000000	1.972251
O	3.944501	1.972251	0.000000
Sr	5.916752	1.972251	5.916752
Ti	3.944501	0.000000	3.944501
O	5.916752	0.000000	3.944501
O	3.944501	0.000000	5.916752
O	3.944501	1.972251	3.944501
Sr	5.916752	5.916752	1.972251
Ti	3.944501	3.944501	0.000000
O	5.916752	3.944501	0.000000
O	3.944501	3.944501	1.972251
O	3.944501	5.916752	0.000000
Sr	5.916752	5.916752	5.916752
Ti	3.944501	3.944501	3.944501
O	5.916752	3.944501	3.944501
O	3.944501	3.944501	5.916752
O	3.944501	5.916752	3.944501
