40

Sr	-2.788748	0.000000	-1.972793
Ti	0.000000	0.000000	0.000000
O	0.000000	0.000000	-1.972793
O	-1.394374	1.394374	0.000000
O	-1.394374	-1.394374	0.000000
Sr	-2.788748	0.000000	-5.918378
Ti	0.000000	0.000000	-3.945586
O	0.000000	0.000000	-5.918378
O	-1.394374	1.394374	-3.945586
O	-1.394374	-1.394374	-3.945586
Sr	-5.577497	2.788748	-1.972793
Ti	-2.788748	2.788748	0.000000
O	-2.788748	2.788748	-1.972793
O	-4.183123	4.183123	0.000000
O	-4.183123	1.394374	0.000000
Sr	-5.577497	2.788748	-5.918378
Ti	-2.788748	2.788748	-3.945586
O	-2.788748	2.788748	-5.918378
O	-4.183123	4.183123	-3.945586
O	-4.183123	1.394374	-3.945586
Sr	-5.577497	-2.788748	-1.972793
Ti	-2.788748	-2.788748	0.000000
O	-2.788748	-2.788748	-1.972793
O	-4.183123	-1.394374	0.000000
O	-4.183123	-4.183123	0.000000
Sr	-5.577497	-2.788748	-5.918378
Ti	-2.788748	-2.788748	-3.945586
O	-2.788748	-2.788748	-5.918378
O	-4.183123	-1.394374	-3.945586
O	-4.183123	-4.183123	-3.945586
Sr	-8.366245	0.000000	-1.972793
Ti	-5.577497	0.000000	0.000000
O	-5.577497	0.000000	-1.972793
O	-6.971871	1.394374	0.000000
O	-6.971871	-1.394374	0.000000
Sr	-8.366245	0.000000	-5.918378
Ti	-5.577497	0.000000	-3.945586
O	-5.577497	0.000000	-5.918378
O	-6.971871	1.394374	-3.945586
O	-6.971871	-1.394374	-3.945586
