40

Sr	-2.788234	0.000000	-1.972361
Ti	0.000000	0.000000	0.000000
O	0.000000	0.000000	-1.972361
O	-1.394117	1.394117	0.000000
O	-1.394117	-1.394117	0.000000
Sr	-2.788234	0.000000	-5.917084
Ti	0.000000	0.000000	-3.944723
O	0.000000	0.000000	-5.917084
O	-1.394117	1.394117	-3.944723
O	-1.394117	-1.394117	-3.944723
Sr	-5.576469	2.788234	-1.972361
Ti	-2.788234	2.788234	0.000000
O	-2.788234	2.788234	-1.972361
O	-4.182352	4.182352	0.000000
O	-4.182352	1.394117	0.000000
Sr	-5.576469	2.788234	-5.917084
Ti	-2.788234	2.788234	-3.944723
O	-2.788234	2.788234	-5.917084
O	-4.182352	4.182352	-3.944723
O	-4.182352	1.394117	-3.944723
Sr	-5.576469	-2.788234	-1.972361
Ti	-2.788234	-2.788234	0.000000
O	-2.788234	-2.788234	-1.972361
O	-4.182352	-1.394117	0.000000
O	-4.182352	-4.182352	0.000000
Sr	-5.576469	-2.788234	-5.917084
Ti	-2.788234	-2.788234	-3.944723
O	-2.788234	-2.788234	-5.917084
O	-4.182352	-1.394117	-3.944723
O	-4.182352	-4.182352	-3.944723
Sr	-8.364703	0.000000	-1.972361
Ti	-5.576469	0.000000	0.000000
O	-5.576469	0.000000	-1.972361
O	-6.970586	1.394117	0.000000
O	-6.970586	-1.394117	0.000000
Sr	-8.364703	0.000000	-5.917084
Ti	-5.576469	0.000000	-3.944723
O	-5.576469	0.000000	-5.917084
O	-6.970586	1.394117	-3.944723
O	-6.970586	-1.394117	-3.944723
