40

K	2.187781	2.187781	2.187781
O	0.000000	2.187781	2.187781
O	2.187781	0.000000	2.187781
O	2.187781	2.187781	0.000000
Os	0.000000	0.000000	0.000000
K	2.187781	2.187781	6.563342
O	0.000000	2.187781	6.563342
O	2.187781	0.000000	6.563342
O	2.187781	2.187781	4.375561
Os	0.000000	0.000000	4.375561
K	2.187781	6.563342	2.187781
O	0.000000	6.563342	2.187781
O	2.187781	4.375561	2.187781
O	2.187781	6.563342	0.000000
Os	0.000000	4.375561	0.000000
K	2.187781	6.563342	6.563342
O	0.000000	6.563342	6.563342
O	2.187781	4.375561	6.563342
O	2.187781	6.563342	4.375561
Os	0.000000	4.375561	4.375561
K	6.563342	2.187781	2.187781
O	4.375561	2.187781	2.187781
O	6.563342	0.000000	2.187781
O	6.563342	2.187781	0.000000
Os	4.375561	0.000000	0.000000
K	6.563342	2.187781	6.563342
O	4.375561	2.187781	6.563342
O	6.563342	0.000000	6.563342
O	6.563342	2.187781	4.375561
Os	4.375561	0.000000	4.375561
K	6.563342	6.563342	2.187781
O	4.375561	6.563342	2.187781
O	6.563342	4.375561	2.187781
O	6.563342	6.563342	0.000000
Os	4.375561	4.375561	0.000000
K	6.563342	6.563342	6.563342
O	4.375561	6.563342	6.563342
O	6.563342	4.375561	6.563342
O	6.563342	6.563342	4.375561
Os	4.375561	4.375561	4.375561
