40

B	1.732720	1.732720	1.732720
O	1.732720	1.732720	0.000000
O	0.000000	1.732720	1.732720
O	1.732720	0.000000	1.732720
Sn	0.000000	0.000000	0.000000
B	1.732720	1.732720	5.198154
O	1.732720	1.732720	3.465434
O	0.000000	1.732720	5.198154
O	1.732720	0.000000	5.198154
Sn	0.000000	0.000000	3.465434
B	1.732720	5.198154	1.732720
O	1.732720	5.198154	0.000000
O	0.000000	5.198154	1.732720
O	1.732720	3.465434	1.732720
Sn	0.000000	3.465434	0.000000
B	1.732720	5.198154	5.198154
O	1.732720	5.198154	3.465434
O	0.000000	5.198154	5.198154
O	1.732720	3.465434	5.198154
Sn	0.000000	3.465434	3.465434
B	5.198154	1.732720	1.732720
O	5.198154	1.732720	0.000000
O	3.465434	1.732720	1.732720
O	5.198154	0.000000	1.732720
Sn	3.465434	0.000000	0.000000
B	5.198154	1.732720	5.198154
O	5.198154	1.732720	3.465434
O	3.465434	1.732720	5.198154
O	5.198154	0.000000	5.198154
Sn	3.465434	0.000000	3.465434
B	5.198154	5.198154	1.732720
O	5.198154	5.198154	0.000000
O	3.465434	5.198154	1.732720
O	5.198154	3.465434	1.732720
Sn	3.465434	3.465434	0.000000
B	5.198154	5.198154	5.198154
O	5.198154	5.198154	3.465434
O	3.465434	5.198154	5.198154
O	5.198154	3.465434	5.198154
Sn	3.465434	3.465434	3.465434
