112

Cu	0.000000	0.000000	0.000000
Cu	2.157067	-2.157802	-2.157802
O	3.309987	-1.004222	-1.004222
O	-1.004146	1.004222	-3.311382
O	1.004146	-1.004222	-3.311382
O	1.152921	1.153580	-1.153580
O	5.318279	1.004222	-1.004222
O	1.152921	3.162024	-3.162024
O	3.161213	3.162024	-1.153580
O	3.161213	1.153580	-3.162024
Pd	-1.078533	-1.078901	-3.236703
Pd	3.235600	1.078901	-1.078901
Pd	5.392667	-1.078901	-1.078901
Pd	1.078533	1.078901	-3.236703
Cu	4.314133	4.315603	0.000000
Cu	6.471200	2.157802	-2.157802
O	7.624121	3.311382	-1.004222
O	3.309987	5.319825	-3.311382
O	5.318279	3.311382	-3.311382
O	5.467054	5.469183	-1.153580
O	9.632413	5.319825	-1.004222
O	5.467054	7.477627	-3.162024
O	7.475346	7.477627	-1.153580
O	7.475346	5.469183	-3.162024
Pd	3.235600	3.236703	-3.236703
Pd	7.549734	5.394504	-1.078901
Pd	9.706800	3.236703	-1.078901
Pd	5.392667	5.394504	-3.236703
Cu	-4.314133	0.000000	-4.315603
Cu	-2.157067	-2.157802	-6.473405
O	-1.004146	-1.004222	-5.319825
O	-5.318279	1.004222	-7.626985
O	-3.309987	-1.004222	-7.626985
O	-3.161213	1.153580	-5.469183
O	1.004146	1.004222	-5.319825
O	-3.161213	3.162024	-7.477627
O	-1.152921	3.162024	-5.469183
O	-1.152921	1.153580	-7.477627
Pd	-5.392667	-1.078901	-7.552306
Pd	-1.078533	1.078901	-5.394504
Pd	1.078533	-1.078901	-5.394504
Pd	-3.235600	1.078901	-7.552306
Cu	0.000000	4.315603	-4.315603
Cu	2.157067	2.157802	-6.473405
O	3.309987	3.311382	-5.319825
O	-1.004146	5.319825	-7.626985
O	1.004146	3.311382	-7.626985
O	1.152921	5.469183	-5.469183
O	5.318279	5.319825	-5.319825
O	1.152921	7.477627	-7.477627
O	3.161213	7.477627	-5.469183
O	3.161213	5.469183	-7.477627
Pd	-1.078533	3.236703	-7.552306
Pd	3.235600	5.394504	-5.394504
Pd	5.392667	3.236703	-5.394504
Pd	1.078533	5.394504	-7.552306
Cu	4.314133	-4.315603	0.000000
Cu	6.471200	-6.473405	-2.157802
O	7.624121	-5.319825	-1.004222
O	3.309987	-3.311382	-3.311382
O	5.318279	-5.319825	-3.311382
O	5.467054	-3.162024	-1.153580
O	9.632413	-3.311382	-1.004222
O	5.467054	-1.153580	-3.162024
O	7.475346	-1.153580	-1.153580
O	7.475346	-3.162024	-3.162024
Pd	3.235600	-5.394504	-3.236703
Pd	7.549734	-3.236703	-1.078901
Pd	9.706800	-5.394504	-1.078901
Pd	5.392667	-3.236703	-3.236703
Cu	8.628267	0.000000	0.000000
Cu	10.785334	-2.157802	-2.157802
O	11.938254	-1.004222	-1.004222
O	7.624121	1.004222	-3.311382
O	9.632413	-1.004222	-3.311382
O	9.781188	1.153580	-1.153580
O	13.946546	1.004222	-1.004222
O	9.781188	3.162024	-3.162024
O	11.789480	3.162024	-1.153580
O	11.789480	1.153580	-3.162024
Pd	7.549734	-1.078901	-3.236703
Pd	11.863867	1.078901	-1.078901
Pd	14.020934	-1.078901	-1.078901
Pd	9.706800	1.078901	-3.236703
Cu	0.000000	-4.315603	-4.315603
Cu	2.157067	-6.473405	-6.473405
O	3.309987	-5.319825	-5.319825
O	-1.004146	-3.311382	-7.626985
O	1.004146	-5.319825	-7.626985
O	1.152921	-3.162024	-5.469183
O	5.318279	-3.311382	-5.319825
O	1.152921	-1.153580	-7.477627
O	3.161213	-1.153580	-5.469183
O	3.161213	-3.162024	-7.477627
Pd	-1.078533	-5.394504	-7.552306
Pd	3.235600	-3.236703	-5.394504
Pd	5.392667	-5.394504	-5.394504
Pd	1.078533	-3.236703	-7.552306
Cu	4.314133	0.000000	-4.315603
Cu	6.471200	-2.157802	-6.473405
O	7.624121	-1.004222	-5.319825
O	3.309987	1.004222	-7.626985
O	5.318279	-1.004222	-7.626985
O	5.467054	1.153580	-5.469183
O	9.632413	1.004222	-5.319825
O	5.467054	3.162024	-7.477627
O	7.475346	3.162024	-5.469183
O	7.475346	1.153580	-7.477627
Pd	3.235600	-1.078901	-7.552306
Pd	7.549734	1.078901	-5.394504
Pd	9.706800	-1.078901	-5.394504
Pd	5.392667	1.078901	-7.552306
