112

Eu	0.000000	0.000000	0.000000
Eu	2.499770	-2.499732	-2.499732
Np	-1.249885	-1.249866	-3.749598
Np	3.749655	1.249866	-1.249866
Np	6.249425	-1.249866	-1.249866
Np	1.249885	1.249866	-3.749598
O	3.850867	-1.147961	-1.147961
O	-1.148673	1.147961	-3.851503
O	1.148673	-1.147961	-3.851503
O	1.351097	1.351771	-1.351771
O	6.148213	1.147961	-1.147961
O	1.351097	3.647693	-3.647693
O	3.648443	3.647693	-1.351771
O	3.648443	1.351771	-3.647693
Eu	4.999540	4.999464	0.000000
Eu	7.499310	2.499732	-2.499732
Np	3.749655	3.749598	-3.749598
Np	8.749195	6.249330	-1.249866
Np	11.248965	3.749598	-1.249866
Np	6.249425	6.249330	-3.749598
O	8.850407	3.851503	-1.147961
O	3.850867	6.147425	-3.851503
O	6.148213	3.851503	-3.851503
O	6.350637	6.351235	-1.351771
O	11.147753	6.147425	-1.147961
O	6.350637	8.647157	-3.647693
O	8.647983	8.647157	-1.351771
O	8.647983	6.351235	-3.647693
Eu	-4.999540	0.000000	-4.999464
Eu	-2.499770	-2.499732	-7.499196
Np	-6.249425	-1.249866	-8.749062
Np	-1.249885	1.249866	-6.249330
Np	1.249885	-1.249866	-6.249330
Np	-3.749655	1.249866	-8.749062
O	-1.148673	-1.147961	-6.147425
O	-6.148213	1.147961	-8.850967
O	-3.850867	-1.147961	-8.850967
O	-3.648443	1.351771	-6.351235
O	1.148673	1.147961	-6.147425
O	-3.648443	3.647693	-8.647157
O	-1.351097	3.647693	-6.351235
O	-1.351097	1.351771	-8.647157
Eu	0.000000	4.999464	-4.999464
Eu	2.499770	2.499732	-7.499196
Np	-1.249885	3.749598	-8.749062
Np	3.749655	6.249330	-6.249330
Np	6.249425	3.749598	-6.249330
Np	1.249885	6.249330	-8.749062
O	3.850867	3.851503	-6.147425
O	-1.148673	6.147425	-8.850967
O	1.148673	3.851503	-8.850967
O	1.351097	6.351235	-6.351235
O	6.148213	6.147425	-6.147425
O	1.351097	8.647157	-8.647157
O	3.648443	8.647157	-6.351235
O	3.648443	6.351235	-8.647157
Eu	4.999540	-4.999464	0.000000
Eu	7.499310	-7.499196	-2.499732
Np	3.749655	-6.249330	-3.749598
Np	8.749195	-3.749598	-1.249866
Np	11.248965	-6.249330	-1.249866
Np	6.249425	-3.749598	-3.749598
O	8.850407	-6.147425	-1.147961
O	3.850867	-3.851503	-3.851503
O	6.148213	-6.147425	-3.851503
O	6.350637	-3.647693	-1.351771
O	11.147753	-3.851503	-1.147961
O	6.350637	-1.351771	-3.647693
O	8.647983	-1.351771	-1.351771
O	8.647983	-3.647693	-3.647693
Eu	9.999080	0.000000	0.000000
Eu	12.498850	-2.499732	-2.499732
Np	8.749195	-1.249866	-3.749598
Np	13.748735	1.249866	-1.249866
Np	16.248506	-1.249866	-1.249866
Np	11.248965	1.249866	-3.749598
O	13.849948	-1.147961	-1.147961
O	8.850408	1.147961	-3.851503
O	11.147753	-1.147961	-3.851503
O	11.350178	1.351771	-1.351771
O	16.147293	1.147961	-1.147961
O	11.350178	3.647693	-3.647693
O	13.647523	3.647693	-1.351771
O	13.647523	1.351771	-3.647693
Eu	0.000000	-4.999464	-4.999464
Eu	2.499770	-7.499196	-7.499196
Np	-1.249885	-6.249330	-8.749062
Np	3.749655	-3.749598	-6.249330
Np	6.249425	-6.249330	-6.249330
Np	1.249885	-3.749598	-8.749062
O	3.850867	-6.147425	-6.147425
O	-1.148673	-3.851503	-8.850967
O	1.148673	-6.147425	-8.850967
O	1.351097	-3.647693	-6.351235
O	6.148213	-3.851503	-6.147425
O	1.351097	-1.351771	-8.647157
O	3.648443	-1.351771	-6.351235
O	3.648443	-3.647693	-8.647157
Eu	4.999540	0.000000	-4.999464
Eu	7.499310	-2.499732	-7.499196
Np	3.749655	-1.249866	-8.749062
Np	8.749195	1.249866	-6.249330
Np	11.248965	-1.249866	-6.249330
Np	6.249425	1.249866	-8.749062
O	8.850407	-1.147961	-6.147425
O	3.850867	1.147961	-8.850967
O	6.148213	-1.147961	-8.850967
O	6.350637	1.351771	-6.351235
O	11.147753	1.147961	-6.147425
O	6.350637	3.647693	-8.647157
O	8.647983	3.647693	-6.351235
O	8.647983	1.351771	-8.647157
