112

O	3.479921	-1.161890	-1.161890
O	-1.162150	1.161890	-3.480935
O	1.162150	-1.161890	-3.480935
O	1.158885	1.159523	-1.159523
O	5.804220	1.161890	-1.161890
O	1.158885	3.483302	-3.483302
O	3.483185	3.483302	-1.159523
O	3.483185	1.159523	-3.483302
Sn	0.000000	0.000000	0.000000
Sn	2.321035	-2.321413	-2.321413
Yb	-1.160518	-1.160706	-3.482119
Yb	3.481553	1.160706	-1.160706
Yb	5.802588	-1.160706	-1.160706
Yb	1.160518	1.160706	-3.482119
O	8.121991	3.480935	-1.161890
O	3.479921	5.804715	-3.480935
O	5.804220	3.480935	-3.480935
O	5.800956	5.802348	-1.159523
O	10.446291	5.804715	-1.161890
O	5.800956	8.126128	-3.483302
O	8.125255	8.126128	-1.159523
O	8.125255	5.802348	-3.483302
Sn	4.642070	4.642825	0.000000
Sn	6.963106	2.321413	-2.321413
Yb	3.481553	3.482119	-3.482119
Yb	8.123623	5.803532	-1.160706
Yb	10.444659	3.482119	-1.160706
Yb	5.802588	5.803532	-3.482119
O	-1.162150	-1.161890	-5.804715
O	-5.804220	1.161890	-8.123761
O	-3.479921	-1.161890	-8.123761
O	-3.483185	1.159523	-5.802348
O	1.162150	1.161890	-5.804715
O	-3.483185	3.483302	-8.126128
O	-1.158885	3.483302	-5.802348
O	-1.158885	1.159523	-8.126128
Sn	-4.642070	0.000000	-4.642825
Sn	-2.321035	-2.321413	-6.964238
Yb	-5.802588	-1.160706	-8.124944
Yb	-1.160518	1.160706	-5.803532
Yb	1.160518	-1.160706	-5.803532
Yb	-3.481553	1.160706	-8.124944
O	3.479921	3.480935	-5.804715
O	-1.162150	5.804715	-8.123761
O	1.162150	3.480935	-8.123761
O	1.158885	5.802348	-5.802348
O	5.804220	5.804715	-5.804715
O	1.158885	8.126128	-8.126128
O	3.483185	8.126128	-5.802348
O	3.483185	5.802348	-8.126128
Sn	0.000000	4.642825	-4.642825
Sn	2.321035	2.321413	-6.964238
Yb	-1.160518	3.482119	-8.124944
Yb	3.481553	5.803532	-5.803532
Yb	5.802588	3.482119	-5.803532
Yb	1.160518	5.803532	-8.124944
O	8.121991	-5.804715	-1.161890
O	3.479921	-3.480935	-3.480935
O	5.804220	-5.804715	-3.480935
O	5.800956	-3.483302	-1.159523
O	10.446291	-3.480935	-1.161890
O	5.800956	-1.159523	-3.483302
O	8.125255	-1.159523	-1.159523
O	8.125255	-3.483302	-3.483302
Sn	4.642070	-4.642825	0.000000
Sn	6.963106	-6.964238	-2.321413
Yb	3.481553	-5.803532	-3.482119
Yb	8.123623	-3.482119	-1.160706
Yb	10.444659	-5.803532	-1.160706
Yb	5.802588	-3.482119	-3.482119
O	12.764062	-1.161890	-1.161890
O	8.121991	1.161890	-3.480935
O	10.446291	-1.161890	-3.480935
O	10.443026	1.159523	-1.159523
O	15.088361	1.161890	-1.161890
O	10.443026	3.483302	-3.483302
O	12.767326	3.483302	-1.159523
O	12.767326	1.159523	-3.483302
Sn	9.284141	0.000000	0.000000
Sn	11.605176	-2.321413	-2.321413
Yb	8.123623	-1.160706	-3.482119
Yb	12.765694	1.160706	-1.160706
Yb	15.086729	-1.160706	-1.160706
Yb	10.444659	1.160706	-3.482119
O	3.479921	-5.804715	-5.804715
O	-1.162150	-3.480935	-8.123761
O	1.162150	-5.804715	-8.123761
O	1.158885	-3.483302	-5.802348
O	5.804220	-3.480935	-5.804715
O	1.158885	-1.159523	-8.126128
O	3.483185	-1.159523	-5.802348
O	3.483185	-3.483302	-8.126128
Sn	0.000000	-4.642825	-4.642825
Sn	2.321035	-6.964238	-6.964238
Yb	-1.160518	-5.803532	-8.124944
Yb	3.481553	-3.482119	-5.803532
Yb	5.802588	-5.803532	-5.803532
Yb	1.160518	-3.482119	-8.124944
O	8.121991	-1.161890	-5.804715
O	3.479921	1.161890	-8.123761
O	5.804220	-1.161890	-8.123761
O	5.800956	1.159523	-5.802348
O	10.446291	1.161890	-5.804715
O	5.800956	3.483302	-8.126128
O	8.125255	3.483302	-5.802348
O	8.125255	1.159523	-8.126128
Sn	4.642070	0.000000	-4.642825
Sn	6.963106	-2.321413	-6.964238
Yb	3.481553	-1.160706	-8.124944
Yb	8.123623	1.160706	-5.803532
Yb	10.444659	-1.160706	-5.803532
Yb	5.802588	1.160706	-8.124944
