40

La	0.000000	0.000000	0.000000
O	1.947850	1.947850	0.000000
O	0.000000	1.947850	1.947850
O	1.947850	0.000000	1.947850
Zn	1.947850	1.947850	1.947850
La	0.000000	0.000000	3.895714
O	1.947850	1.947850	3.895714
O	0.000000	1.947850	5.843564
O	1.947850	0.000000	5.843564
Zn	1.947850	1.947850	5.843564
La	0.000000	3.895714	0.000000
O	1.947850	5.843564	0.000000
O	0.000000	5.843564	1.947850
O	1.947850	3.895714	1.947850
Zn	1.947850	5.843564	1.947850
La	0.000000	3.895714	3.895714
O	1.947850	5.843564	3.895714
O	0.000000	5.843564	5.843564
O	1.947850	3.895714	5.843564
Zn	1.947850	5.843564	5.843564
La	3.895714	0.000000	0.000000
O	5.843564	1.947850	0.000000
O	3.895714	1.947850	1.947850
O	5.843564	0.000000	1.947850
Zn	5.843564	1.947850	1.947850
La	3.895714	0.000000	3.895714
O	5.843564	1.947850	3.895714
O	3.895714	1.947850	5.843564
O	5.843564	0.000000	5.843564
Zn	5.843564	1.947850	5.843564
La	3.895714	3.895714	0.000000
O	5.843564	5.843564	0.000000
O	3.895714	5.843564	1.947850
O	5.843564	3.895714	1.947850
Zn	5.843564	5.843564	1.947850
La	3.895714	3.895714	3.895714
O	5.843564	5.843564	3.895714
O	3.895714	5.843564	5.843564
O	5.843564	3.895714	5.843564
Zn	5.843564	5.843564	5.843564
