40

La	2.199640	2.199640	2.199640
O	0.000000	2.199640	2.199640
O	2.199640	2.199640	0.000000
O	2.199640	0.000000	2.199640
Zn	0.000000	0.000000	0.000000
La	2.199640	2.199640	6.598914
O	0.000000	2.199640	6.598914
O	2.199640	2.199640	4.399274
O	2.199640	0.000000	6.598914
Zn	0.000000	0.000000	4.399274
La	2.199640	6.598914	2.199640
O	0.000000	6.598914	2.199640
O	2.199640	6.598914	0.000000
O	2.199640	4.399274	2.199640
Zn	0.000000	4.399274	0.000000
La	2.199640	6.598914	6.598914
O	0.000000	6.598914	6.598914
O	2.199640	6.598914	4.399274
O	2.199640	4.399274	6.598914
Zn	0.000000	4.399274	4.399274
La	6.598914	2.199640	2.199640
O	4.399274	2.199640	2.199640
O	6.598914	2.199640	0.000000
O	6.598914	0.000000	2.199640
Zn	4.399274	0.000000	0.000000
La	6.598914	2.199640	6.598914
O	4.399274	2.199640	6.598914
O	6.598914	2.199640	4.399274
O	6.598914	0.000000	6.598914
Zn	4.399274	0.000000	4.399274
La	6.598914	6.598914	2.199640
O	4.399274	6.598914	2.199640
O	6.598914	6.598914	0.000000
O	6.598914	4.399274	2.199640
Zn	4.399274	4.399274	0.000000
La	6.598914	6.598914	6.598914
O	4.399274	6.598914	6.598914
O	6.598914	6.598914	4.399274
O	6.598914	4.399274	6.598914
Zn	4.399274	4.399274	4.399274
