40

Ir	0.000000	0.000000	0.000000
O	1.938870	0.000000	1.938870
O	0.000000	1.938870	1.938870
O	1.938870	1.938870	0.000000
Rh	1.938870	1.938870	1.938870
Ir	0.000000	0.000000	3.877739
O	1.938870	0.000000	5.816609
O	0.000000	1.938870	5.816609
O	1.938870	1.938870	3.877739
Rh	1.938870	1.938870	5.816609
Ir	0.000000	3.877739	0.000000
O	1.938870	3.877739	1.938870
O	0.000000	5.816609	1.938870
O	1.938870	5.816609	0.000000
Rh	1.938870	5.816609	1.938870
Ir	0.000000	3.877739	3.877739
O	1.938870	3.877739	5.816609
O	0.000000	5.816609	5.816609
O	1.938870	5.816609	3.877739
Rh	1.938870	5.816609	5.816609
Ir	3.877739	0.000000	0.000000
O	5.816609	0.000000	1.938870
O	3.877739	1.938870	1.938870
O	5.816609	1.938870	0.000000
Rh	5.816609	1.938870	1.938870
Ir	3.877739	0.000000	3.877739
O	5.816609	0.000000	5.816609
O	3.877739	1.938870	5.816609
O	5.816609	1.938870	3.877739
Rh	5.816609	1.938870	5.816609
Ir	3.877739	3.877739	0.000000
O	5.816609	3.877739	1.938870
O	3.877739	5.816609	1.938870
O	5.816609	5.816609	0.000000
Rh	5.816609	5.816609	1.938870
Ir	3.877739	3.877739	3.877739
O	5.816609	3.877739	5.816609
O	3.877739	5.816609	5.816609
O	5.816609	5.816609	3.877739
Rh	5.816609	5.816609	5.816609
