40

Co	0.000000	0.000000	0.000000
O	2.267247	2.267247	0.000000
O	2.267247	0.000000	2.267247
O	0.000000	2.267247	2.267247
Th	2.267247	2.267247	2.267247
Co	0.000000	0.000000	4.534487
O	2.267247	2.267247	4.534487
O	2.267247	0.000000	6.801735
O	0.000000	2.267247	6.801735
Th	2.267247	2.267247	6.801735
Co	0.000000	4.534487	0.000000
O	2.267247	6.801735	0.000000
O	2.267247	4.534487	2.267247
O	0.000000	6.801735	2.267247
Th	2.267247	6.801735	2.267247
Co	0.000000	4.534487	4.534487
O	2.267247	6.801735	4.534487
O	2.267247	4.534487	6.801735
O	0.000000	6.801735	6.801735
Th	2.267247	6.801735	6.801735
Co	4.534487	0.000000	0.000000
O	6.801735	2.267247	0.000000
O	6.801735	0.000000	2.267247
O	4.534487	2.267247	2.267247
Th	6.801735	2.267247	2.267247
Co	4.534487	0.000000	4.534487
O	6.801735	2.267247	4.534487
O	6.801735	0.000000	6.801735
O	4.534487	2.267247	6.801735
Th	6.801735	2.267247	6.801735
Co	4.534487	4.534487	0.000000
O	6.801735	6.801735	0.000000
O	6.801735	4.534487	2.267247
O	4.534487	6.801735	2.267247
Th	6.801735	6.801735	2.267247
Co	4.534487	4.534487	4.534487
O	6.801735	6.801735	4.534487
O	6.801735	4.534487	6.801735
O	4.534487	6.801735	6.801735
Th	6.801735	6.801735	6.801735
