40

Ga	1.890510	1.890510	1.890510
O	1.890510	1.890510	0.000000
O	0.000000	1.890510	1.890510
O	1.890510	0.000000	1.890510
Tm	0.000000	0.000000	0.000000
Ga	1.890510	1.890510	5.671525
O	1.890510	1.890510	3.781015
O	0.000000	1.890510	5.671525
O	1.890510	0.000000	5.671525
Tm	0.000000	0.000000	3.781015
Ga	1.890510	5.671525	1.890510
O	1.890510	5.671525	0.000000
O	0.000000	5.671525	1.890510
O	1.890510	3.781015	1.890510
Tm	0.000000	3.781015	0.000000
Ga	1.890510	5.671525	5.671525
O	1.890510	5.671525	3.781015
O	0.000000	5.671525	5.671525
O	1.890510	3.781015	5.671525
Tm	0.000000	3.781015	3.781015
Ga	5.671525	1.890510	1.890510
O	5.671525	1.890510	0.000000
O	3.781015	1.890510	1.890510
O	5.671525	0.000000	1.890510
Tm	3.781015	0.000000	0.000000
Ga	5.671525	1.890510	5.671525
O	5.671525	1.890510	3.781015
O	3.781015	1.890510	5.671525
O	5.671525	0.000000	5.671525
Tm	3.781015	0.000000	3.781015
Ga	5.671525	5.671525	1.890510
O	5.671525	5.671525	0.000000
O	3.781015	5.671525	1.890510
O	5.671525	3.781015	1.890510
Tm	3.781015	3.781015	0.000000
Ga	5.671525	5.671525	5.671525
O	5.671525	5.671525	3.781015
O	3.781015	5.671525	5.671525
O	5.671525	3.781015	5.671525
Tm	3.781015	3.781015	3.781015
