112

Ga	0.000000	0.000000	0.000000
Ga	2.296549	-2.296780	-2.296780
Lu	-1.148280	-1.148385	-3.445165
Lu	3.444829	1.148385	-1.148385
Lu	5.741378	-1.148385	-1.148385
Lu	1.148280	1.148385	-3.445165
O	-1.063603	1.063365	-3.530186
O	3.529505	-1.063365	-1.063365
O	1.063603	-1.063365	-3.530186
O	1.232956	1.233415	-1.233415
O	5.656702	1.063365	-1.063365
O	1.232956	3.360135	-3.360135
O	3.360153	1.233415	-3.360135
O	3.360153	3.360135	-1.233415
Ga	4.593106	4.593552	0.000000
Ga	6.889655	2.296772	-2.296780
Lu	3.444826	3.445167	-3.445165
Lu	8.037934	5.741937	-1.148385
Lu	10.334484	3.445167	-1.148385
Lu	5.741385	5.741937	-3.445165
O	3.529502	5.656917	-3.530186
O	8.122611	3.530187	-1.063365
O	5.656709	3.530187	-3.530186
O	5.826061	5.826967	-1.233415
O	10.249807	5.656917	-1.063365
O	5.826062	7.953687	-3.360135
O	7.953258	5.826967	-3.360135
O	7.953258	7.953687	-1.233415
Ga	-4.593106	0.000000	-4.593552
Ga	-2.296556	-2.296780	-6.890332
Lu	-5.741385	-1.148385	-8.038717
Lu	-1.148277	1.148385	-5.741937
Lu	1.148272	-1.148385	-5.741937
Lu	-3.444826	1.148385	-8.038717
O	-5.656709	1.063365	-8.123737
O	-1.063601	-1.063365	-5.656917
O	-3.529502	-1.063365	-8.123737
O	-3.360150	1.233415	-5.826967
O	1.063596	1.063365	-5.656917
O	-3.360150	3.360135	-7.953687
O	-1.232953	1.233415	-7.953687
O	-1.232953	3.360135	-5.826967
Ga	0.000000	4.593552	-4.593552
Ga	2.296549	2.296772	-6.890332
Lu	-1.148280	3.445167	-8.038717
Lu	3.444829	5.741937	-5.741937
Lu	5.741378	3.445167	-5.741937
Lu	1.148280	5.741937	-8.038717
O	-1.063603	5.656917	-8.123737
O	3.529505	3.530187	-5.656917
O	1.063603	3.530187	-8.123737
O	1.232956	5.826967	-5.826967
O	5.656702	5.656917	-5.656917
O	1.232956	7.953687	-7.953687
O	3.360153	5.826967	-7.953687
O	3.360153	7.953687	-5.826967
Ga	4.593106	-4.593552	0.000000
Ga	6.889655	-6.890332	-2.296780
Lu	3.444826	-5.741937	-3.445165
Lu	8.037934	-3.445167	-1.148385
Lu	10.334484	-5.741937	-1.148385
Lu	5.741385	-3.445167	-3.445165
O	3.529502	-3.530187	-3.530186
O	8.122611	-5.656917	-1.063365
O	5.656709	-5.656917	-3.530186
O	5.826061	-3.360137	-1.233415
O	10.249807	-3.530187	-1.063365
O	5.826062	-1.233417	-3.360135
O	7.953258	-3.360137	-3.360135
O	7.953258	-1.233417	-1.233415
Ga	9.186211	0.000000	0.000000
Ga	11.482761	-2.296780	-2.296780
Lu	8.037932	-1.148385	-3.445165
Lu	12.631040	1.148385	-1.148385
Lu	14.927589	-1.148385	-1.148385
Lu	10.334491	1.148385	-3.445165
O	8.122608	1.063365	-3.530186
O	12.715716	-1.063365	-1.063365
O	10.249815	-1.063365	-3.530186
O	10.419167	1.233415	-1.233415
O	14.842913	1.063365	-1.063365
O	10.419167	3.360135	-3.360135
O	12.546364	1.233415	-3.360135
O	12.546364	3.360135	-1.233415
Ga	0.000000	-4.593552	-4.593552
Ga	2.296549	-6.890332	-6.890332
Lu	-1.148280	-5.741937	-8.038717
Lu	3.444829	-3.445167	-5.741937
Lu	5.741378	-5.741937	-5.741937
Lu	1.148280	-3.445167	-8.038717
O	-1.063603	-3.530187	-8.123737
O	3.529505	-5.656917	-5.656917
O	1.063603	-5.656917	-8.123737
O	1.232956	-3.360137	-5.826967
O	5.656702	-3.530187	-5.656917
O	1.232956	-1.233417	-7.953687
O	3.360153	-3.360137	-7.953687
O	3.360153	-1.233417	-5.826967
Ga	4.593106	0.000000	-4.593552
Ga	6.889655	-2.296780	-6.890332
Lu	3.444826	-1.148385	-8.038717
Lu	8.037934	1.148385	-5.741937
Lu	10.334484	-1.148385	-5.741937
Lu	5.741385	1.148385	-8.038717
O	3.529502	1.063365	-8.123737
O	8.122611	-1.063365	-5.656917
O	5.656709	-1.063365	-8.123737
O	5.826061	1.233415	-5.826967
O	10.249807	1.063365	-5.656917
O	5.826062	3.360135	-7.953687
O	7.953258	1.233415	-7.953687
O	7.953258	3.360135	-5.826967
