40

Cr	0.000000	0.000000	0.000000
O	0.000000	2.048911	2.048911
O	2.048911	0.000000	2.048911
O	2.048911	2.048911	0.000000
Sn	2.048911	2.048911	2.048911
Cr	0.000000	0.000000	4.097821
O	0.000000	2.048911	6.146732
O	2.048911	0.000000	6.146732
O	2.048911	2.048911	4.097821
Sn	2.048911	2.048911	6.146732
Cr	0.000000	4.097821	0.000000
O	0.000000	6.146732	2.048911
O	2.048911	4.097821	2.048911
O	2.048911	6.146732	0.000000
Sn	2.048911	6.146732	2.048911
Cr	0.000000	4.097821	4.097821
O	0.000000	6.146732	6.146732
O	2.048911	4.097821	6.146732
O	2.048911	6.146732	4.097821
Sn	2.048911	6.146732	6.146732
Cr	4.097821	0.000000	0.000000
O	4.097821	2.048911	2.048911
O	6.146732	0.000000	2.048911
O	6.146732	2.048911	0.000000
Sn	6.146732	2.048911	2.048911
Cr	4.097821	0.000000	4.097821
O	4.097821	2.048911	6.146732
O	6.146732	0.000000	6.146732
O	6.146732	2.048911	4.097821
Sn	6.146732	2.048911	6.146732
Cr	4.097821	4.097821	0.000000
O	4.097821	6.146732	2.048911
O	6.146732	4.097821	2.048911
O	6.146732	6.146732	0.000000
Sn	6.146732	6.146732	2.048911
Cr	4.097821	4.097821	4.097821
O	4.097821	6.146732	6.146732
O	6.146732	4.097821	6.146732
O	6.146732	6.146732	4.097821
Sn	6.146732	6.146732	6.146732
