40

Cr	0.000000	0.000000	0.000000
O	2.002720	2.002720	0.000000
O	0.000000	2.002720	2.002720
O	2.002720	0.000000	2.002720
Sn_d	2.002720	2.002720	2.002720
Cr	0.000000	0.000000	4.005442
O	2.002720	2.002720	4.005442
O	0.000000	2.002720	6.008162
O	2.002720	0.000000	6.008162
Sn_d	2.002720	2.002720	6.008162
Cr	0.000000	4.005442	0.000000
O	2.002720	6.008162	0.000000
O	0.000000	6.008162	2.002720
O	2.002720	4.005442	2.002720
Sn_d	2.002720	6.008162	2.002720
Cr	0.000000	4.005442	4.005442
O	2.002720	6.008162	4.005442
O	0.000000	6.008162	6.008162
O	2.002720	4.005442	6.008162
Sn_d	2.002720	6.008162	6.008162
Cr	4.005442	0.000000	0.000000
O	6.008162	2.002720	0.000000
O	4.005442	2.002720	2.002720
O	6.008162	0.000000	2.002720
Sn_d	6.008162	2.002720	2.002720
Cr	4.005442	0.000000	4.005442
O	6.008162	2.002720	4.005442
O	4.005442	2.002720	6.008162
O	6.008162	0.000000	6.008162
Sn_d	6.008162	2.002720	6.008162
Cr	4.005442	4.005442	0.000000
O	6.008162	6.008162	0.000000
O	4.005442	6.008162	2.002720
O	6.008162	4.005442	2.002720
Sn_d	6.008162	6.008162	2.002720
Cr	4.005442	4.005442	4.005442
O	6.008162	6.008162	4.005442
O	4.005442	6.008162	6.008162
O	6.008162	4.005442	6.008162
Sn_d	6.008162	6.008162	6.008162
