40

Ga	1.974300	1.974300	1.974300
O	0.000000	1.974300	1.974300
O	1.974300	0.000000	1.974300
O	1.974300	1.974300	0.000000
Sr	0.000000	0.000000	0.000000
Ga	1.974300	1.974300	5.922901
O	0.000000	1.974300	5.922901
O	1.974300	0.000000	5.922901
O	1.974300	1.974300	3.948601
Sr	0.000000	0.000000	3.948601
Ga	1.974300	5.922901	1.974300
O	0.000000	5.922901	1.974300
O	1.974300	3.948601	1.974300
O	1.974300	5.922901	0.000000
Sr	0.000000	3.948601	0.000000
Ga	1.974300	5.922901	5.922901
O	0.000000	5.922901	5.922901
O	1.974300	3.948601	5.922901
O	1.974300	5.922901	3.948601
Sr	0.000000	3.948601	3.948601
Ga	5.922901	1.974300	1.974300
O	3.948601	1.974300	1.974300
O	5.922901	0.000000	1.974300
O	5.922901	1.974300	0.000000
Sr	3.948601	0.000000	0.000000
Ga	5.922901	1.974300	5.922901
O	3.948601	1.974300	5.922901
O	5.922901	0.000000	5.922901
O	5.922901	1.974300	3.948601
Sr	3.948601	0.000000	3.948601
Ga	5.922901	5.922901	1.974300
O	3.948601	5.922901	1.974300
O	5.922901	3.948601	1.974300
O	5.922901	5.922901	0.000000
Sr	3.948601	3.948601	0.000000
Ga	5.922901	5.922901	5.922901
O	3.948601	5.922901	5.922901
O	5.922901	3.948601	5.922901
O	5.922901	5.922901	3.948601
Sr	3.948601	3.948601	3.948601
