40

Ga	0.000000	0.000000	0.000000
O	2.247175	2.247175	0.000000
O	2.247175	0.000000	2.247175
O	0.000000	2.247175	2.247175
Sr	2.247175	2.247175	2.247175
Ga	0.000000	0.000000	4.494355
O	2.247175	2.247175	4.494355
O	2.247175	0.000000	6.741530
O	0.000000	2.247175	6.741530
Sr	2.247175	2.247175	6.741530
Ga	0.000000	4.494355	0.000000
O	2.247175	6.741530	0.000000
O	2.247175	4.494355	2.247175
O	0.000000	6.741530	2.247175
Sr	2.247175	6.741530	2.247175
Ga	0.000000	4.494355	4.494355
O	2.247175	6.741530	4.494355
O	2.247175	4.494355	6.741530
O	0.000000	6.741530	6.741530
Sr	2.247175	6.741530	6.741530
Ga	4.494355	0.000000	0.000000
O	6.741530	2.247175	0.000000
O	6.741530	0.000000	2.247175
O	4.494355	2.247175	2.247175
Sr	6.741530	2.247175	2.247175
Ga	4.494355	0.000000	4.494355
O	6.741530	2.247175	4.494355
O	6.741530	0.000000	6.741530
O	4.494355	2.247175	6.741530
Sr	6.741530	2.247175	6.741530
Ga	4.494355	4.494355	0.000000
O	6.741530	6.741530	0.000000
O	6.741530	4.494355	2.247175
O	4.494355	6.741530	2.247175
Sr	6.741530	6.741530	2.247175
Ga	4.494355	4.494355	4.494355
O	6.741530	6.741530	4.494355
O	6.741530	4.494355	6.741530
O	4.494355	6.741530	6.741530
Sr	6.741530	6.741530	6.741530
