40

O	1.962320	1.962320	0.000000
O	0.000000	1.962320	1.962320
O	1.962320	0.000000	1.962320
Sn_d	0.000000	0.000000	0.000000
Ti	1.962320	1.962320	1.962320
O	1.962320	1.962320	3.924632
O	0.000000	1.962320	5.886952
O	1.962320	0.000000	5.886952
Sn_d	0.000000	0.000000	3.924632
Ti	1.962320	1.962320	5.886952
O	1.962320	5.886952	0.000000
O	0.000000	5.886952	1.962320
O	1.962320	3.924632	1.962320
Sn_d	0.000000	3.924632	0.000000
Ti	1.962320	5.886952	1.962320
O	1.962320	5.886952	3.924632
O	0.000000	5.886952	5.886952
O	1.962320	3.924632	5.886952
Sn_d	0.000000	3.924632	3.924632
Ti	1.962320	5.886952	5.886952
O	5.886952	1.962320	0.000000
O	3.924632	1.962320	1.962320
O	5.886952	0.000000	1.962320
Sn_d	3.924632	0.000000	0.000000
Ti	5.886952	1.962320	1.962320
O	5.886952	1.962320	3.924632
O	3.924632	1.962320	5.886952
O	5.886952	0.000000	5.886952
Sn_d	3.924632	0.000000	3.924632
Ti	5.886952	1.962320	5.886952
O	5.886952	5.886952	0.000000
O	3.924632	5.886952	1.962320
O	5.886952	3.924632	1.962320
Sn_d	3.924632	3.924632	0.000000
Ti	5.886952	5.886952	1.962320
O	5.886952	5.886952	3.924632
O	3.924632	5.886952	5.886952
O	5.886952	3.924632	5.886952
Sn_d	3.924632	3.924632	3.924632
Ti	5.886952	5.886952	5.886952
