40

O	1.999420	0.000000	1.999420
O	0.000000	1.999420	1.999420
O	1.999420	1.999420	0.000000
Sn_d	1.999420	1.999420	1.999420
Ti	0.000000	0.000000	0.000000
O	1.999420	0.000000	5.998268
O	0.000000	1.999420	5.998268
O	1.999420	1.999420	3.998848
Sn_d	1.999420	1.999420	5.998268
Ti	0.000000	0.000000	3.998848
O	1.999420	3.998848	1.999420
O	0.000000	5.998268	1.999420
O	1.999420	5.998268	0.000000
Sn_d	1.999420	5.998268	1.999420
Ti	0.000000	3.998848	0.000000
O	1.999420	3.998848	5.998268
O	0.000000	5.998268	5.998268
O	1.999420	5.998268	3.998848
Sn_d	1.999420	5.998268	5.998268
Ti	0.000000	3.998848	3.998848
O	5.998268	0.000000	1.999420
O	3.998848	1.999420	1.999420
O	5.998268	1.999420	0.000000
Sn_d	5.998268	1.999420	1.999420
Ti	3.998848	0.000000	0.000000
O	5.998268	0.000000	5.998268
O	3.998848	1.999420	5.998268
O	5.998268	1.999420	3.998848
Sn_d	5.998268	1.999420	5.998268
Ti	3.998848	0.000000	3.998848
O	5.998268	3.998848	1.999420
O	3.998848	5.998268	1.999420
O	5.998268	5.998268	0.000000
Sn_d	5.998268	5.998268	1.999420
Ti	3.998848	3.998848	0.000000
O	5.998268	3.998848	5.998268
O	3.998848	5.998268	5.998268
O	5.998268	5.998268	3.998848
Sn_d	5.998268	5.998268	5.998268
Ti	3.998848	3.998848	3.998848
