112

O	3.690971	-1.126351	-1.126351
O	-1.126645	1.126351	-3.692598
O	1.126645	-1.126351	-3.692598
O	1.282163	1.283124	-1.283124
O	5.944262	1.126351	-1.126351
O	1.282163	3.535826	-3.535826
O	3.535454	3.535826	-1.283124
O	3.535454	1.283124	-3.535826
Tb	0.000000	0.000000	0.000000
Tb	2.408808	-2.409475	-2.409475
Y	-1.204404	-1.204737	-3.614212
Y	3.613212	1.204737	-1.204737
Y	6.022020	-1.204737	-1.204737
Y	1.204404	1.204737	-3.614212
O	8.508587	3.692598	-1.126351
O	3.690971	5.945300	-3.692598
O	5.944262	3.692598	-3.692598
O	6.099779	6.102073	-1.283124
O	10.761878	5.945300	-1.126351
O	6.099779	8.354775	-3.535826
O	8.353070	8.354775	-1.283124
O	8.353070	6.102073	-3.535826
Tb	4.817616	4.818949	0.000000
Tb	7.226424	2.409475	-2.409475
Y	3.613212	3.614212	-3.614212
Y	8.430828	6.023687	-1.204737
Y	10.839636	3.614212	-1.204737
Y	6.022020	6.023687	-3.614212
O	-1.126645	-1.126351	-5.945300
O	-5.944262	1.126351	-8.511548
O	-3.690971	-1.126351	-8.511548
O	-3.535454	1.283124	-6.102073
O	1.126645	1.126351	-5.945300
O	-3.535454	3.535826	-8.354775
O	-1.282163	3.535826	-6.102073
O	-1.282163	1.283124	-8.354775
Tb	-4.817616	0.000000	-4.818949
Tb	-2.408808	-2.409475	-7.228424
Y	-6.022020	-1.204737	-8.433161
Y	-1.204404	1.204737	-6.023687
Y	1.204404	-1.204737	-6.023687
Y	-3.613212	1.204737	-8.433161
O	3.690971	3.692598	-5.945300
O	-1.126645	5.945300	-8.511548
O	1.126645	3.692598	-8.511548
O	1.282163	6.102073	-6.102073
O	5.944262	5.945300	-5.945300
O	1.282163	8.354775	-8.354775
O	3.535454	8.354775	-6.102073
O	3.535454	6.102073	-8.354775
Tb	0.000000	4.818949	-4.818949
Tb	2.408808	2.409475	-7.228424
Y	-1.204404	3.614212	-8.433161
Y	3.613212	6.023687	-6.023687
Y	6.022020	3.614212	-6.023687
Y	1.204404	6.023687	-8.433161
O	8.508587	-5.945300	-1.126351
O	3.690971	-3.692598	-3.692598
O	5.944262	-5.945300	-3.692598
O	6.099779	-3.535826	-1.283124
O	10.761878	-3.692598	-1.126351
O	6.099779	-1.283124	-3.535826
O	8.353070	-1.283124	-1.283124
O	8.353070	-3.535826	-3.535826
Tb	4.817616	-4.818949	0.000000
Tb	7.226424	-7.228424	-2.409475
Y	3.613212	-6.023687	-3.614212
Y	8.430828	-3.614212	-1.204737
Y	10.839636	-6.023687	-1.204737
Y	6.022020	-3.614212	-3.614212
O	13.326203	-1.126351	-1.126351
O	8.508587	1.126351	-3.692598
O	10.761878	-1.126351	-3.692598
O	10.917395	1.283124	-1.283124
O	15.579494	1.126351	-1.126351
O	10.917395	3.535826	-3.535826
O	13.170686	3.535826	-1.283124
O	13.170686	1.283124	-3.535826
Tb	9.635232	0.000000	0.000000
Tb	12.044040	-2.409475	-2.409475
Y	8.430828	-1.204737	-3.614212
Y	13.248445	1.204737	-1.204737
Y	15.657253	-1.204737	-1.204737
Y	10.839636	1.204737	-3.614212
O	3.690971	-5.945300	-5.945300
O	-1.126645	-3.692598	-8.511548
O	1.126645	-5.945300	-8.511548
O	1.282163	-3.535826	-6.102073
O	5.944262	-3.692598	-5.945300
O	1.282163	-1.283124	-8.354775
O	3.535454	-1.283124	-6.102073
O	3.535454	-3.535826	-8.354775
Tb	0.000000	-4.818949	-4.818949
Tb	2.408808	-7.228424	-7.228424
Y	-1.204404	-6.023687	-8.433161
Y	3.613212	-3.614212	-6.023687
Y	6.022020	-6.023687	-6.023687
Y	1.204404	-3.614212	-8.433161
O	8.508587	-1.126351	-5.945300
O	3.690971	1.126351	-8.511548
O	5.944262	-1.126351	-8.511548
O	6.099779	1.283124	-6.102073
O	10.761878	1.126351	-5.945300
O	6.099779	3.535826	-8.354775
O	8.353070	3.535826	-6.102073
O	8.353070	1.283124	-8.354775
Tb	4.817616	0.000000	-4.818949
Tb	7.226424	-2.409475	-7.228424
Y	3.613212	-1.204737	-8.433161
Y	8.430828	1.204737	-6.023687
Y	10.839636	-1.204737	-6.023687
Y	6.022020	1.204737	-8.433161
