40

Na	0.000000	0.000000	0.000000
O	0.000000	1.940751	1.940751
O	1.940751	0.000000	1.940751
O	1.940751	1.940751	0.000000
Tc	1.940751	1.940751	1.940751
Na	0.000000	0.000000	3.881502
O	0.000000	1.940751	5.822253
O	1.940751	0.000000	5.822253
O	1.940751	1.940751	3.881502
Tc	1.940751	1.940751	5.822253
Na	0.000000	3.881502	0.000000
O	0.000000	5.822253	1.940751
O	1.940751	3.881502	1.940751
O	1.940751	5.822253	0.000000
Tc	1.940751	5.822253	1.940751
Na	0.000000	3.881502	3.881502
O	0.000000	5.822253	5.822253
O	1.940751	3.881502	5.822253
O	1.940751	5.822253	3.881502
Tc	1.940751	5.822253	5.822253
Na	3.881502	0.000000	0.000000
O	3.881502	1.940751	1.940751
O	5.822253	0.000000	1.940751
O	5.822253	1.940751	0.000000
Tc	5.822253	1.940751	1.940751
Na	3.881502	0.000000	3.881502
O	3.881502	1.940751	5.822253
O	5.822253	0.000000	5.822253
O	5.822253	1.940751	3.881502
Tc	5.822253	1.940751	5.822253
Na	3.881502	3.881502	0.000000
O	3.881502	5.822253	1.940751
O	5.822253	3.881502	1.940751
O	5.822253	5.822253	0.000000
Tc	5.822253	5.822253	1.940751
Na	3.881502	3.881502	3.881502
O	3.881502	5.822253	5.822253
O	5.822253	3.881502	5.822253
O	5.822253	5.822253	3.881502
Tc	5.822253	5.822253	5.822253
