40

Au	2.039490	2.039490	2.039490
O	0.000000	2.039490	2.039490
O	2.039490	0.000000	2.039490
O	2.039490	2.039490	0.000000
Zr	0.000000	0.000000	0.000000
Au	2.039490	2.039490	6.118471
O	0.000000	2.039490	6.118471
O	2.039490	0.000000	6.118471
O	2.039490	2.039490	4.078981
Zr	0.000000	0.000000	4.078981
Au	2.039490	6.118471	2.039490
O	0.000000	6.118471	2.039490
O	2.039490	4.078981	2.039490
O	2.039490	6.118471	0.000000
Zr	0.000000	4.078981	0.000000
Au	2.039490	6.118471	6.118471
O	0.000000	6.118471	6.118471
O	2.039490	4.078981	6.118471
O	2.039490	6.118471	4.078981
Zr	0.000000	4.078981	4.078981
Au	6.118471	2.039490	2.039490
O	4.078981	2.039490	2.039490
O	6.118471	0.000000	2.039490
O	6.118471	2.039490	0.000000
Zr	4.078981	0.000000	0.000000
Au	6.118471	2.039490	6.118471
O	4.078981	2.039490	6.118471
O	6.118471	0.000000	6.118471
O	6.118471	2.039490	4.078981
Zr	4.078981	0.000000	4.078981
Au	6.118471	6.118471	2.039490
O	4.078981	6.118471	2.039490
O	6.118471	4.078981	2.039490
O	6.118471	6.118471	0.000000
Zr	4.078981	4.078981	0.000000
Au	6.118471	6.118471	6.118471
O	4.078981	6.118471	6.118471
O	6.118471	4.078981	6.118471
O	6.118471	6.118471	4.078981
Zr	4.078981	4.078981	4.078981
