40

Au	2.038933	2.038933	2.038933
O	0.000000	2.038933	2.038933
O	2.038933	0.000000	2.038933
O	2.038933	2.038933	0.000000
Zr	0.000000	0.000000	0.000000
Au	2.038933	2.038933	6.116798
O	0.000000	2.038933	6.116798
O	2.038933	0.000000	6.116798
O	2.038933	2.038933	4.077865
Zr	0.000000	0.000000	4.077865
Au	2.038933	6.116798	2.038933
O	0.000000	6.116798	2.038933
O	2.038933	4.077865	2.038933
O	2.038933	6.116798	0.000000
Zr	0.000000	4.077865	0.000000
Au	2.038933	6.116798	6.116798
O	0.000000	6.116798	6.116798
O	2.038933	4.077865	6.116798
O	2.038933	6.116798	4.077865
Zr	0.000000	4.077865	4.077865
Au	6.116798	2.038933	2.038933
O	4.077865	2.038933	2.038933
O	6.116798	0.000000	2.038933
O	6.116798	2.038933	0.000000
Zr	4.077865	0.000000	0.000000
Au	6.116798	2.038933	6.116798
O	4.077865	2.038933	6.116798
O	6.116798	0.000000	6.116798
O	6.116798	2.038933	4.077865
Zr	4.077865	0.000000	4.077865
Au	6.116798	6.116798	2.038933
O	4.077865	6.116798	2.038933
O	6.116798	4.077865	2.038933
O	6.116798	6.116798	0.000000
Zr	4.077865	4.077865	0.000000
Au	6.116798	6.116798	6.116798
O	4.077865	6.116798	6.116798
O	6.116798	4.077865	6.116798
O	6.116798	6.116798	4.077865
Zr	4.077865	4.077865	4.077865
