40

Al	0.000000	0.000000	0.000000
Ge	1.870782	1.870782	1.870782
O	1.870782	1.870782	0.000000
O	1.870782	0.000000	1.870782
O	0.000000	1.870782	1.870782
Al	0.000000	0.000000	3.741565
Ge	1.870782	1.870782	5.612347
O	1.870782	1.870782	3.741565
O	1.870782	0.000000	5.612347
O	0.000000	1.870782	5.612347
Al	0.000000	3.741565	0.000000
Ge	1.870782	5.612347	1.870782
O	1.870782	5.612347	0.000000
O	1.870782	3.741565	1.870782
O	0.000000	5.612347	1.870782
Al	0.000000	3.741565	3.741565
Ge	1.870782	5.612347	5.612347
O	1.870782	5.612347	3.741565
O	1.870782	3.741565	5.612347
O	0.000000	5.612347	5.612347
Al	3.741565	0.000000	0.000000
Ge	5.612347	1.870782	1.870782
O	5.612347	1.870782	0.000000
O	5.612347	0.000000	1.870782
O	3.741565	1.870782	1.870782
Al	3.741565	0.000000	3.741565
Ge	5.612347	1.870782	5.612347
O	5.612347	1.870782	3.741565
O	5.612347	0.000000	5.612347
O	3.741565	1.870782	5.612347
Al	3.741565	3.741565	0.000000
Ge	5.612347	5.612347	1.870782
O	5.612347	5.612347	0.000000
O	5.612347	3.741565	1.870782
O	3.741565	5.612347	1.870782
Al	3.741565	3.741565	3.741565
Ge	5.612347	5.612347	5.612347
O	5.612347	5.612347	3.741565
O	5.612347	3.741565	5.612347
O	3.741565	5.612347	5.612347
