40

Ba	2.290051	2.290051	2.290051
O	2.290051	2.290051	0.000000
O	2.290051	0.000000	2.290051
O	0.000000	2.290051	2.290051
Ti	0.000000	0.000000	0.000000
Ba	2.290051	2.290051	6.870150
O	2.290051	2.290051	4.580100
O	2.290051	0.000000	6.870150
O	0.000000	2.290051	6.870150
Ti	0.000000	0.000000	4.580100
Ba	2.290051	6.870150	2.290051
O	2.290051	6.870150	0.000000
O	2.290051	4.580100	2.290051
O	0.000000	6.870150	2.290051
Ti	0.000000	4.580100	0.000000
Ba	2.290051	6.870150	6.870150
O	2.290051	6.870150	4.580100
O	2.290051	4.580100	6.870150
O	0.000000	6.870150	6.870150
Ti	0.000000	4.580100	4.580100
Ba	6.870150	2.290051	2.290051
O	6.870150	2.290051	0.000000
O	6.870150	0.000000	2.290051
O	4.580100	2.290051	2.290051
Ti	4.580100	0.000000	0.000000
Ba	6.870150	2.290051	6.870150
O	6.870150	2.290051	4.580100
O	6.870150	0.000000	6.870150
O	4.580100	2.290051	6.870150
Ti	4.580100	0.000000	4.580100
Ba	6.870150	6.870150	2.290051
O	6.870150	6.870150	0.000000
O	6.870150	4.580100	2.290051
O	4.580100	6.870150	2.290051
Ti	4.580100	4.580100	0.000000
Ba	6.870150	6.870150	6.870150
O	6.870150	6.870150	4.580100
O	6.870150	4.580100	6.870150
O	4.580100	6.870150	6.870150
Ti	4.580100	4.580100	4.580100
