40

Ba	0.000000	0.000000	0.000000
O	0.000000	2.000276	2.000276
O	2.000276	0.000000	2.000276
O	2.000276	2.000276	0.000000
Ti	1.985276	2.000276	2.000276
Ba	0.000000	0.000000	4.000552
O	0.000000	2.000276	6.000828
O	2.000276	0.000000	6.000828
O	2.000276	2.000276	4.000552
Ti	1.985276	2.000276	6.000828
Ba	0.000000	4.000552	0.000000
O	0.000000	6.000828	2.000276
O	2.000276	4.000552	2.000276
O	2.000276	6.000828	0.000000
Ti	1.985276	6.000828	2.000276
Ba	0.000000	4.000552	4.000552
O	0.000000	6.000828	6.000828
O	2.000276	4.000552	6.000828
O	2.000276	6.000828	4.000552
Ti	1.985276	6.000828	6.000828
Ba	4.000552	0.000000	0.000000
O	4.000552	2.000276	2.000276
O	6.000828	0.000000	2.000276
O	6.000828	2.000276	0.000000
Ti	5.985828	2.000276	2.000276
Ba	4.000552	0.000000	4.000552
O	4.000552	2.000276	6.000828
O	6.000828	0.000000	6.000828
O	6.000828	2.000276	4.000552
Ti	5.985828	2.000276	6.000828
Ba	4.000552	4.000552	0.000000
O	4.000552	6.000828	2.000276
O	6.000828	4.000552	2.000276
O	6.000828	6.000828	0.000000
Ti	5.985828	6.000828	2.000276
Ba	4.000552	4.000552	4.000552
O	4.000552	6.000828	6.000828
O	6.000828	4.000552	6.000828
O	6.000828	6.000828	4.000552
Ti	5.985828	6.000828	6.000828
