40

Ni	0.000000	0.000000	0.000000
O	0.000000	1.946861	1.946861
O	1.946861	0.000000	1.946861
O	1.946861	1.946861	0.000000
W	1.946861	1.946861	1.946861
Ni	0.000000	0.000000	3.893722
O	0.000000	1.946861	5.840584
O	1.946861	0.000000	5.840584
O	1.946861	1.946861	3.893722
W	1.946861	1.946861	5.840584
Ni	0.000000	3.893722	0.000000
O	0.000000	5.840584	1.946861
O	1.946861	3.893722	1.946861
O	1.946861	5.840584	0.000000
W	1.946861	5.840584	1.946861
Ni	0.000000	3.893722	3.893722
O	0.000000	5.840584	5.840584
O	1.946861	3.893722	5.840584
O	1.946861	5.840584	3.893722
W	1.946861	5.840584	5.840584
Ni	3.893722	0.000000	0.000000
O	3.893722	1.946861	1.946861
O	5.840584	0.000000	1.946861
O	5.840584	1.946861	0.000000
W	5.840584	1.946861	1.946861
Ni	3.893722	0.000000	3.893722
O	3.893722	1.946861	5.840584
O	5.840584	0.000000	5.840584
O	5.840584	1.946861	3.893722
W	5.840584	1.946861	5.840584
Ni	3.893722	3.893722	0.000000
O	3.893722	5.840584	1.946861
O	5.840584	3.893722	1.946861
O	5.840584	5.840584	0.000000
W	5.840584	5.840584	1.946861
Ni	3.893722	3.893722	3.893722
O	3.893722	5.840584	5.840584
O	5.840584	3.893722	5.840584
O	5.840584	5.840584	3.893722
W	5.840584	5.840584	5.840584
