112

Er	0.000000	0.000000	0.000000
Er	2.582961	-2.585423	-2.585423
K	-1.291485	-1.292717	-3.878130
K	6.457417	-1.292717	-1.292717
K	1.291485	1.292717	-3.878130
K	3.874446	1.292717	-1.292717
O	1.215061	1.216751	-1.216751
O	3.798022	-1.368672	-1.368672
O	-1.367909	1.368672	-3.802174
O	1.367909	-1.368672	-3.802174
O	1.215062	3.954086	-3.954086
O	3.950880	1.216751	-3.954086
O	3.950880	3.954086	-1.216751
O	6.533841	1.368672	-1.368672
Er	5.165928	5.170843	0.000000
Er	7.748889	2.585420	-2.585423
K	3.874443	3.878127	-3.878130
K	11.623345	3.878127	-1.292717
K	6.457414	6.463560	-3.878130
K	9.040374	6.463560	-1.292717
O	6.380990	6.387594	-1.216751
O	8.963951	3.802171	-1.368672
O	3.798019	6.539516	-3.802174
O	6.533838	3.802171	-3.802174
O	6.380990	9.124929	-3.954086
O	9.116808	6.387594	-3.954086
O	9.116808	9.124929	-1.216751
O	11.699769	6.539516	-1.368672
Er	-5.165928	0.000000	-5.170843
Er	-2.582968	-2.585423	-7.756267
K	-6.457414	-1.292717	-9.048973
K	1.291488	-1.292717	-6.463560
K	-3.874443	1.292717	-9.048973
K	-1.291482	1.292717	-6.463560
O	-3.950867	1.216751	-6.387594
O	-1.367906	-1.368672	-6.539516
O	-6.533838	1.368672	-8.973018
O	-3.798019	-1.368672	-8.973018
O	-3.950867	3.954086	-9.124929
O	-1.215048	1.216751	-9.124929
O	-1.215049	3.954086	-6.387594
O	1.367912	1.368672	-6.539516
Er	0.000000	5.170843	-5.170843
Er	2.582961	2.585420	-7.756267
K	-1.291485	3.878127	-9.048973
K	6.457417	3.878127	-6.463560
K	1.291485	6.463560	-9.048973
K	3.874446	6.463560	-6.463560
O	1.215061	6.387594	-6.387594
O	3.798022	3.802171	-6.539516
O	-1.367909	6.539516	-8.973018
O	1.367909	3.802171	-8.973018
O	1.215062	9.124929	-9.124929
O	3.950880	6.387594	-9.124929
O	3.950880	9.124929	-6.387594
O	6.533841	6.539516	-6.539516
Er	5.165928	-5.170843	0.000000
Er	7.748889	-7.756267	-2.585423
K	3.874443	-6.463560	-3.878130
K	11.623345	-6.463560	-1.292717
K	6.457414	-3.878127	-3.878130
K	9.040374	-3.878127	-1.292717
O	6.380990	-3.954092	-1.216751
O	8.963951	-6.539516	-1.368672
O	3.798019	-3.802171	-3.802174
O	6.533838	-6.539516	-3.802174
O	6.380990	-1.216758	-3.954086
O	9.116808	-3.954093	-3.954086
O	9.116808	-1.216758	-1.216751
O	11.699769	-3.802171	-1.368672
Er	10.331857	0.000000	0.000000
Er	12.914817	-2.585423	-2.585423
K	9.040371	-1.292717	-3.878130
K	16.789274	-1.292717	-1.292717
K	11.623342	1.292717	-3.878130
K	14.206303	1.292717	-1.292717
O	11.546918	1.216751	-1.216751
O	14.129879	-1.368672	-1.368672
O	8.963948	1.368672	-3.802174
O	11.699766	-1.368672	-3.802174
O	11.546918	3.954086	-3.954086
O	14.282737	1.216751	-3.954086
O	14.282737	3.954086	-1.216751
O	16.865697	1.368672	-1.368672
Er	0.000000	-5.170843	-5.170843
Er	2.582961	-7.756267	-7.756267
K	-1.291485	-6.463560	-9.048973
K	6.457417	-6.463560	-6.463560
K	1.291485	-3.878127	-9.048973
K	3.874446	-3.878127	-6.463560
O	1.215061	-3.954092	-6.387594
O	3.798022	-6.539516	-6.539516
O	-1.367909	-3.802171	-8.973018
O	1.367909	-6.539516	-8.973018
O	1.215062	-1.216758	-9.124929
O	3.950880	-3.954093	-9.124929
O	3.950880	-1.216758	-6.387594
O	6.533841	-3.802171	-6.539516
Er	5.165928	0.000000	-5.170843
Er	7.748889	-2.585423	-7.756267
K	3.874443	-1.292717	-9.048973
K	11.623345	-1.292717	-6.463560
K	6.457414	1.292717	-9.048973
K	9.040374	1.292717	-6.463560
O	6.380990	1.216751	-6.387594
O	8.963951	-1.368672	-6.539516
O	3.798019	1.368672	-8.973018
O	6.533838	-1.368672	-8.973018
O	6.380990	3.954086	-9.124929
O	9.116808	1.216751	-9.124929
O	9.116808	3.954086	-6.387594
O	11.699769	1.368672	-6.539516
