288

F	-1.501738	0.547550	-0.968033
F	-4.200765	0.968033	-1.501738
F	-0.968033	-1.501738	0.547550
F	-6.250043	-0.547550	-0.968033
F	-3.780282	-1.501738	-0.547550
F	-4.200764	-3.780281	1.501738
F	0.547550	-0.968033	-1.501738
F	-3.780281	1.501738	-4.200764
F	-1.501738	-4.200765	0.968033
F	-5.716338	-3.246576	-0.547550
F	-4.200764	-0.968033	-3.246576
F	-1.501738	-0.547550	-3.780282
F	-3.246576	-4.200764	-0.968033
F	-0.547550	-3.780282	-1.501738
F	0.968033	-1.501738	-4.200765
F	-3.246576	-0.547550	-5.716338
F	-0.968033	-6.250043	-0.547550
F	-5.295855	-3.780281	-3.246576
F	-0.547550	-0.968033	-6.250043
F	-0.968033	-3.246576	-4.200764
F	1.501738	-4.200764	-3.780281
F	-3.780281	-3.246576	-5.295855
F	-0.547550	-5.716338	-3.246576
F	-3.246576	-5.295855	-3.780281
O	-2.714857	-2.033457	2.033457
O	-6.781772	2.033457	-2.033457
O	-2.033457	2.033457	-2.714857
O	-2.033457	-2.033457	-2.033457
O	2.033457	-2.714857	-2.033457
O	-2.033457	-6.781772	2.033457
O	-2.714857	-2.714857	-2.714857
O	2.033457	-2.033457	-6.781772
Ru	0.000000	0.000000	0.000000
Ru	-4.748315	0.000000	-0.000000
Ru	0.000000	-4.748315	-0.000000
Ru	0.000000	-0.000000	-4.748315
F	3.246572	-4.200760	-5.716344
F	0.547546	-3.780277	-6.250049
F	3.780277	-6.250049	-4.200760
F	-1.501733	-5.295861	-5.716344
F	0.968029	-6.250049	-5.295861
F	0.547546	-8.528592	-3.246572
F	5.295861	-5.716344	-6.250049
F	0.968029	-3.246572	-8.949075
F	3.246572	-8.949075	-3.780277
F	-0.968028	-7.994887	-5.295861
F	0.547546	-5.716344	-7.994887
F	3.246572	-5.295861	-8.528592
F	1.501734	-8.949075	-5.716344
F	4.200760	-8.528592	-6.250049
F	5.716344	-6.250049	-8.949075
F	1.501734	-5.295861	-10.464649
F	3.780277	-10.998354	-5.295861
F	-0.547545	-8.528592	-7.994887
F	4.200760	-5.716344	-10.998354
F	3.780277	-7.994887	-8.949075
F	6.250049	-8.949075	-8.528592
F	0.968029	-7.994887	-10.044166
F	4.200760	-10.464649	-7.994887
F	1.501734	-10.044166	-8.528592
O	2.033453	-6.781768	-2.714853
O	-2.033462	-2.714853	-6.781768
O	2.714853	-2.714853	-7.463168
O	2.714853	-6.781768	-6.781768
O	6.781768	-7.463168	-6.781768
O	2.714853	-11.530082	-2.714853
O	2.033453	-7.463168	-7.463168
O	6.781768	-6.781768	-11.530082
Ru	4.748310	-4.748310	-4.748310
Ru	-0.000004	-4.748310	-4.748310
Ru	4.748310	-9.496625	-4.748310
Ru	4.748310	-4.748310	-9.496625
F	-6.250049	5.295861	-5.716344
F	-8.949075	5.716344	-6.250049
F	-5.716344	3.246572	-4.200760
F	-10.998354	4.200760	-5.716344
F	-8.528592	3.246572	-5.295861
F	-8.949075	0.968029	-3.246572
F	-4.200760	3.780277	-6.250049
F	-8.528592	6.250049	-8.949075
F	-6.250049	0.547546	-3.780277
F	-10.464649	1.501734	-5.295861
F	-8.949075	3.780277	-7.994887
F	-6.250049	4.200760	-8.528592
F	-7.994887	0.547546	-5.716344
F	-5.295861	0.968029	-6.250049
F	-3.780277	3.246572	-8.949075
F	-7.994887	4.200760	-10.464649
F	-5.716344	-1.501733	-5.295861
F	-10.044166	0.968029	-7.994887
F	-5.295861	3.780277	-10.998354
F	-5.716344	1.501734	-8.949075
F	-3.246572	0.547546	-8.528592
F	-8.528592	1.501734	-10.044166
F	-5.295861	-0.968028	-7.994887
F	-7.994887	-0.547545	-8.528592
O	-7.463168	2.714853	-2.714853
O	-11.530082	6.781768	-6.781768
O	-6.781768	6.781768	-7.463168
O	-6.781768	2.714853	-6.781768
O	-2.714853	2.033453	-6.781768
O	-6.781768	-2.033462	-2.714853
O	-7.463168	2.033453	-7.463168
O	-2.714853	2.714853	-11.530082
Ru	-4.748310	4.748310	-4.748310
Ru	-9.496625	4.748310	-4.748310
Ru	-4.748310	-0.000004	-4.748310
Ru	-4.748310	4.748310	-9.496625
F	-1.501738	0.547550	-10.464654
F	-4.200765	0.968033	-10.998359
F	-0.968033	-1.501738	-8.949070
F	-6.250043	-0.547550	-10.464654
F	-3.780282	-1.501738	-10.044171
F	-4.200764	-3.780281	-7.994882
F	0.547550	-0.968033	-10.998359
F	-3.780281	1.501738	-13.697385
F	-1.501738	-4.200765	-8.528587
F	-5.716338	-3.246576	-10.044171
F	-4.200764	-0.968033	-12.743197
F	-1.501738	-0.547550	-13.276902
F	-3.246576	-4.200764	-10.464654
F	-0.547550	-3.780282	-10.998359
F	0.968033	-1.501738	-13.697385
F	-3.246576	-0.547550	-15.212959
F	-0.968033	-6.250043	-10.044171
F	-5.295855	-3.780281	-12.743197
F	-0.547550	-0.968033	-15.746664
F	-0.968033	-3.246576	-13.697385
F	1.501738	-4.200764	-13.276902
F	-3.780281	-3.246576	-14.792476
F	-0.547550	-5.716338	-12.743197
F	-3.246576	-5.295855	-13.276902
O	-2.714857	-2.033457	-7.463163
O	-6.781772	2.033457	-11.530078
O	-2.033457	2.033457	-12.211478
O	-2.033457	-2.033457	-11.530078
O	2.033457	-2.714857	-11.530078
O	-2.033457	-6.781772	-7.463163
O	-2.714857	-2.714857	-12.211478
O	2.033457	-2.033457	-16.278393
Ru	0.000000	0.000000	-9.496621
Ru	-4.748315	0.000000	-9.496621
Ru	0.000000	-4.748315	-9.496621
Ru	0.000000	0.000000	-14.244935
F	-6.250049	-4.200760	3.780277
F	-8.949075	-3.780277	3.246572
F	-5.716344	-6.250049	5.295861
F	-10.998354	-5.295861	3.780277
F	-8.528592	-6.250049	4.200760
F	-8.949075	-8.528592	6.250049
F	-4.200760	-5.716344	3.246572
F	-8.528592	-3.246572	0.547546
F	-6.250049	-8.949075	5.716344
F	-10.464649	-7.994887	4.200760
F	-8.949075	-5.716344	1.501734
F	-6.250049	-5.295861	0.968029
F	-7.994887	-8.949075	3.780277
F	-5.295861	-8.528592	3.246572
F	-3.780277	-6.250049	0.547546
F	-7.994887	-5.295861	-0.968028
F	-5.716344	-10.998354	4.200760
F	-10.044166	-8.528592	1.501734
F	-5.295861	-5.716344	-1.501733
F	-5.716344	-7.994887	0.547546
F	-3.246572	-8.949075	0.968029
F	-8.528592	-7.994887	-0.547545
F	-5.295861	-10.464649	1.501734
F	-7.994887	-10.044166	0.968029
O	-7.463168	-6.781768	6.781768
O	-11.530082	-2.714853	2.714853
O	-6.781768	-2.714853	2.033453
O	-6.781768	-6.781768	2.714853
O	-2.714853	-7.463168	2.714853
O	-6.781768	-11.530082	6.781768
O	-7.463168	-7.463168	2.033453
O	-2.714853	-6.781768	-2.033462
Ru	-4.748310	-4.748310	4.748310
Ru	-9.496625	-4.748310	4.748310
Ru	-4.748310	-9.496625	4.748310
Ru	-4.748310	-4.748310	-0.000004
F	-1.501738	-8.949070	-0.968033
F	-4.200765	-8.528587	-1.501738
F	-0.968033	-10.998359	0.547550
F	-6.250043	-10.044171	-0.968033
F	-3.780282	-10.998359	-0.547550
F	-4.200764	-13.276902	1.501738
F	0.547550	-10.464654	-1.501738
F	-3.780281	-7.994882	-4.200764
F	-1.501738	-13.697385	0.968033
F	-5.716338	-12.743197	-0.547550
F	-4.200764	-10.464654	-3.246576
F	-1.501738	-10.044171	-3.780282
F	-3.246576	-13.697385	-0.968033
F	-0.547550	-13.276902	-1.501738
F	0.968033	-10.998359	-4.200765
F	-3.246576	-10.044171	-5.716338
F	-0.968033	-15.746664	-0.547550
F	-5.295855	-13.276902	-3.246576
F	-0.547550	-10.464654	-6.250043
F	-0.968033	-12.743197	-4.200764
F	1.501738	-13.697385	-3.780281
F	-3.780281	-12.743197	-5.295855
F	-0.547550	-15.212959	-3.246576
F	-3.246576	-14.792476	-3.780281
O	-2.714857	-11.530078	2.033457
O	-6.781772	-7.463163	-2.033457
O	-2.033457	-7.463163	-2.714857
O	-2.033457	-11.530078	-2.033457
O	2.033457	-12.211478	-2.033457
O	-2.033457	-16.278393	2.033457
O	-2.714857	-12.211478	-2.714857
O	2.033457	-11.530078	-6.781772
Ru	0.000000	-9.496621	0.000000
Ru	-4.748315	-9.496621	0.000000
Ru	0.000000	-14.244935	0.000000
Ru	0.000000	-9.496621	-4.748315
F	-10.998359	0.547550	-0.968033
F	-13.697385	0.968033	-1.501738
F	-10.464654	-1.501738	0.547550
F	-15.746664	-0.547550	-0.968033
F	-13.276902	-1.501738	-0.547550
F	-13.697385	-3.780281	1.501738
F	-8.949070	-0.968033	-1.501738
F	-13.276902	1.501738	-4.200764
F	-10.998359	-4.200765	0.968033
F	-15.212959	-3.246576	-0.547550
F	-13.697385	-0.968033	-3.246576
F	-10.998359	-0.547550	-3.780282
F	-12.743197	-4.200764	-0.968033
F	-10.044171	-3.780282	-1.501738
F	-8.528587	-1.501738	-4.200765
F	-12.743197	-0.547550	-5.716338
F	-10.464654	-6.250043	-0.547550
F	-14.792476	-3.780281	-3.246576
F	-10.044171	-0.968033	-6.250043
F	-10.464654	-3.246576	-4.200764
F	-7.994882	-4.200764	-3.780281
F	-13.276902	-3.246576	-5.295855
F	-10.044171	-5.716338	-3.246576
F	-12.743197	-5.295855	-3.780281
O	-12.211478	-2.033457	2.033457
O	-16.278393	2.033457	-2.033457
O	-11.530078	2.033457	-2.714857
O	-11.530078	-2.033457	-2.033457
O	-7.463163	-2.714857	-2.033457
O	-11.530078	-6.781772	2.033457
O	-12.211478	-2.714857	-2.714857
O	-7.463163	-2.033457	-6.781772
Ru	-9.496621	0.000000	0.000000
Ru	-14.244935	0.000000	0.000000
Ru	-9.496621	-4.748315	0.000000
Ru	-9.496621	0.000000	-4.748315
F	-6.250049	-4.200760	-5.716344
F	-8.949075	-3.780277	-6.250049
F	-5.716344	-6.250049	-4.200760
F	-10.998354	-5.295861	-5.716344
F	-8.528592	-6.250049	-5.295861
F	-8.949075	-8.528592	-3.246572
F	-4.200760	-5.716344	-6.250049
F	-8.528592	-3.246572	-8.949075
F	-6.250049	-8.949075	-3.780277
F	-10.464649	-7.994887	-5.295861
F	-8.949075	-5.716344	-7.994887
F	-6.250049	-5.295861	-8.528592
F	-7.994887	-8.949075	-5.716344
F	-5.295861	-8.528592	-6.250049
F	-3.780277	-6.250049	-8.949075
F	-7.994887	-5.295861	-10.464649
F	-5.716344	-10.998354	-5.295861
F	-10.044166	-8.528592	-7.994887
F	-5.295861	-5.716344	-10.998354
F	-5.716344	-7.994887	-8.949075
F	-3.246572	-8.949075	-8.528592
F	-8.528592	-7.994887	-10.044166
F	-5.295861	-10.464649	-7.994887
F	-7.994887	-10.044166	-8.528592
O	-7.463168	-6.781768	-2.714853
O	-11.530082	-2.714853	-6.781768
O	-6.781768	-2.714853	-7.463168
O	-6.781768	-6.781768	-6.781768
O	-2.714853	-7.463168	-6.781768
O	-6.781768	-11.530082	-2.714853
O	-7.463168	-7.463168	-7.463168
O	-2.714853	-6.781768	-11.530082
Ru	-4.748310	-4.748310	-4.748310
Ru	-9.496625	-4.748310	-4.748310
Ru	-4.748310	-9.496625	-4.748310
Ru	-4.748310	-4.748310	-9.496625
