40

Cs	0.000000	0.000000	0.000000
O	0.000000	2.294035	2.294035
O	2.294035	0.000000	2.294035
O	2.294035	2.294035	0.000000
Y	2.294035	2.294035	2.294035
Cs	0.000000	0.000000	4.588071
O	0.000000	2.294035	6.882106
O	2.294035	0.000000	6.882106
O	2.294035	2.294035	4.588071
Y	2.294035	2.294035	6.882106
Cs	0.000000	4.588071	0.000000
O	0.000000	6.882106	2.294035
O	2.294035	4.588071	2.294035
O	2.294035	6.882106	0.000000
Y	2.294035	6.882106	2.294035
Cs	0.000000	4.588071	4.588071
O	0.000000	6.882106	6.882106
O	2.294035	4.588071	6.882106
O	2.294035	6.882106	4.588071
Y	2.294035	6.882106	6.882106
Cs	4.588071	0.000000	0.000000
O	4.588071	2.294035	2.294035
O	6.882106	0.000000	2.294035
O	6.882106	2.294035	0.000000
Y	6.882106	2.294035	2.294035
Cs	4.588071	0.000000	4.588071
O	4.588071	2.294035	6.882106
O	6.882106	0.000000	6.882106
O	6.882106	2.294035	4.588071
Y	6.882106	2.294035	6.882106
Cs	4.588071	4.588071	0.000000
O	4.588071	6.882106	2.294035
O	6.882106	4.588071	2.294035
O	6.882106	6.882106	0.000000
Y	6.882106	6.882106	2.294035
Cs	4.588071	4.588071	4.588071
O	4.588071	6.882106	6.882106
O	6.882106	4.588071	6.882106
O	6.882106	6.882106	4.588071
Y	6.882106	6.882106	6.882106
