40

O	1.992170	1.992170	0.000000
O	0.000000	1.992170	1.992170
O	1.992170	0.000000	1.992170
Sc	1.992170	1.992170	1.992170
Tc	0.000000	0.000000	0.000000
O	1.992170	1.992170	3.984325
O	0.000000	1.992170	5.976495
O	1.992170	0.000000	5.976495
Sc	1.992170	1.992170	5.976495
Tc	0.000000	0.000000	3.984325
O	1.992170	5.976495	0.000000
O	0.000000	5.976495	1.992170
O	1.992170	3.984325	1.992170
Sc	1.992170	5.976495	1.992170
Tc	0.000000	3.984325	0.000000
O	1.992170	5.976495	3.984325
O	0.000000	5.976495	5.976495
O	1.992170	3.984325	5.976495
Sc	1.992170	5.976495	5.976495
Tc	0.000000	3.984325	3.984325
O	5.976495	1.992170	0.000000
O	3.984325	1.992170	1.992170
O	5.976495	0.000000	1.992170
Sc	5.976495	1.992170	1.992170
Tc	3.984325	0.000000	0.000000
O	5.976495	1.992170	3.984325
O	3.984325	1.992170	5.976495
O	5.976495	0.000000	5.976495
Sc	5.976495	1.992170	5.976495
Tc	3.984325	0.000000	3.984325
O	5.976495	5.976495	0.000000
O	3.984325	5.976495	1.992170
O	5.976495	3.984325	1.992170
Sc	5.976495	5.976495	1.992170
Tc	3.984325	3.984325	0.000000
O	5.976495	5.976495	3.984325
O	3.984325	5.976495	5.976495
O	5.976495	3.984325	5.976495
Sc	5.976495	5.976495	5.976495
Tc	3.984325	3.984325	3.984325
