112

Mg	-1.060984	-1.061607	-1.061612
Mg	-3.182953	1.061607	-3.184837
Cr	-2.121969	2.123214	0.000000
Cr	2.121969	0.000000	-2.123225
Cr	0.000000	2.123214	-2.123225
Cr	-4.243938	0.000000	0.000000
O	0.093757	0.094765	-2.217391
O	0.093757	2.028449	-4.152283
O	2.028212	0.094765	-4.152283
O	-2.215726	-2.217979	-2.217391
O	-4.337694	-0.094765	-2.029058
O	-4.337694	-2.028449	-0.094166
O	-6.272149	-0.094765	-0.094166
O	-2.028212	2.217979	-2.029058
Mg	3.182953	-1.061607	-5.308062
Mg	1.060984	1.061607	-7.431286
Cr	2.121969	2.123214	-4.246449
Cr	6.365906	0.000000	-6.369674
Cr	4.243938	2.123214	-6.369674
Cr	0.000000	0.000000	-4.246449
O	4.337694	0.094765	-6.463840
O	4.337694	2.028449	-8.398732
O	6.272149	0.094765	-8.398732
O	2.028212	-2.217979	-6.463840
O	-0.093757	-0.094765	-6.275508
O	-0.093757	-2.028449	-4.340616
O	-2.028212	-0.094765	-4.340616
O	2.215726	2.217979	-6.275508
Mg	-5.304922	3.184822	-1.061612
Mg	-7.426891	5.308036	-3.184837
Cr	-6.365906	6.369643	0.000000
Cr	-2.121969	4.246429	-2.123225
Cr	-4.243938	6.369643	-2.123225
Cr	-8.487875	4.246429	0.000000
O	-4.150181	4.341194	-2.217391
O	-4.150181	6.274878	-4.152283
O	-2.215726	4.341194	-4.152283
O	-6.459663	2.028449	-2.217391
O	-8.581632	4.151664	-2.029058
O	-8.581632	2.217979	-0.094166
O	-10.516087	4.151664	-0.094166
O	-6.272149	6.464408	-2.029058
Mg	-1.060984	3.184822	-5.308062
Mg	-3.182953	5.308036	-7.431286
Cr	-2.121969	6.369643	-4.246449
Cr	2.121969	4.246429	-6.369674
Cr	0.000000	6.369643	-6.369674
Cr	-4.243938	4.246429	-4.246449
O	0.093757	4.341194	-6.463840
O	0.093757	6.274878	-8.398732
O	2.028212	4.341194	-8.398732
O	-2.215726	2.028449	-6.463840
O	-4.337694	4.151664	-6.275508
O	-4.337694	2.217979	-4.340616
O	-6.272149	4.151664	-4.340616
O	-2.028212	6.464408	-6.275508
Mg	-5.304922	-5.308036	-1.061612
Mg	-7.426891	-3.184822	-3.184837
Cr	-6.365906	-2.123214	0.000000
Cr	-2.121969	-4.246429	-2.123225
Cr	-4.243938	-2.123214	-2.123225
Cr	-8.487875	-4.246429	0.000000
O	-4.150181	-4.151664	-2.217391
O	-4.150181	-2.217979	-4.152283
O	-2.215726	-4.151664	-4.152283
O	-6.459663	-6.464408	-2.217391
O	-8.581632	-4.341194	-2.029058
O	-8.581632	-6.274878	-0.094166
O	-10.516087	-4.341194	-0.094166
O	-6.272149	-2.028449	-2.029058
Mg	-1.060984	-5.308036	-5.308062
Mg	-3.182953	-3.184822	-7.431286
Cr	-2.121969	-2.123214	-4.246449
Cr	2.121969	-4.246429	-6.369674
Cr	0.000000	-2.123214	-6.369674
Cr	-4.243938	-4.246429	-4.246449
O	0.093757	-4.151664	-6.463840
O	0.093757	-2.217979	-8.398732
O	2.028212	-4.151664	-8.398732
O	-2.215726	-6.464408	-6.463840
O	-4.337694	-4.341194	-6.275508
O	-4.337694	-6.274878	-4.340616
O	-6.272149	-4.341194	-4.340616
O	-2.028212	-2.028449	-6.275508
Mg	-9.548859	-1.061607	-1.061612
Mg	-11.670828	1.061607	-3.184837
Cr	-10.609844	2.123214	0.000000
Cr	-6.365906	0.000000	-2.123225
Cr	-8.487875	2.123214	-2.123225
Cr	-12.731813	0.000000	0.000000
O	-8.394118	0.094765	-2.217391
O	-8.394118	2.028449	-4.152283
O	-6.459663	0.094765	-4.152283
O	-10.703601	-2.217979	-2.217391
O	-12.825569	-0.094765	-2.029058
O	-12.825569	-2.028449	-0.094166
O	-14.760024	-0.094765	-0.094166
O	-10.516087	2.217979	-2.029058
Mg	-5.304922	-1.061607	-5.308062
Mg	-7.426891	1.061607	-7.431286
Cr	-6.365906	2.123214	-4.246449
Cr	-2.121969	0.000000	-6.369674
Cr	-4.243938	2.123214	-6.369674
Cr	-8.487875	0.000000	-4.246449
O	-4.150181	0.094765	-6.463840
O	-4.150181	2.028449	-8.398732
O	-2.215726	0.094765	-8.398732
O	-6.459663	-2.217979	-6.463840
O	-8.581632	-0.094765	-6.275508
O	-8.581632	-2.028449	-4.340616
O	-10.516087	-0.094765	-4.340616
O	-6.272149	2.217979	-6.275508
