40

B	0.000000	0.000000	0.000000
C	1.634162	1.634162	1.634162
O	0.000000	1.634162	1.634162
O	1.634162	0.000000	1.634162
O	1.634162	1.634162	0.000000
B	0.000000	0.000000	3.268324
C	1.634162	1.634162	4.902486
O	0.000000	1.634162	4.902486
O	1.634162	0.000000	4.902486
O	1.634162	1.634162	3.268324
B	0.000000	3.268324	0.000000
C	1.634162	4.902486	1.634162
O	0.000000	4.902486	1.634162
O	1.634162	3.268324	1.634162
O	1.634162	4.902486	0.000000
B	0.000000	3.268324	3.268324
C	1.634162	4.902486	4.902486
O	0.000000	4.902486	4.902486
O	1.634162	3.268324	4.902486
O	1.634162	4.902486	3.268324
B	3.268324	0.000000	0.000000
C	4.902486	1.634162	1.634162
O	3.268324	1.634162	1.634162
O	4.902486	0.000000	1.634162
O	4.902486	1.634162	0.000000
B	3.268324	0.000000	3.268324
C	4.902486	1.634162	4.902486
O	3.268324	1.634162	4.902486
O	4.902486	0.000000	4.902486
O	4.902486	1.634162	3.268324
B	3.268324	3.268324	0.000000
C	4.902486	4.902486	1.634162
O	3.268324	4.902486	1.634162
O	4.902486	3.268324	1.634162
O	4.902486	4.902486	0.000000
B	3.268324	3.268324	3.268324
C	4.902486	4.902486	4.902486
O	3.268324	4.902486	4.902486
O	4.902486	3.268324	4.902486
O	4.902486	4.902486	3.268324
