40

Bi	0.000000	0.000000	0.000000
F	0.000000	2.056837	2.056837
F	2.056837	0.000000	2.056837
F	2.056837	2.056837	0.000000
O	2.056837	2.056837	2.056837
Bi	0.000000	0.000000	4.113674
F	0.000000	2.056837	6.170511
F	2.056837	0.000000	6.170511
F	2.056837	2.056837	4.113674
O	2.056837	2.056837	6.170511
Bi	0.000000	4.113674	0.000000
F	0.000000	6.170511	2.056837
F	2.056837	4.113674	2.056837
F	2.056837	6.170511	0.000000
O	2.056837	6.170511	2.056837
Bi	0.000000	4.113674	4.113674
F	0.000000	6.170511	6.170511
F	2.056837	4.113674	6.170511
F	2.056837	6.170511	4.113674
O	2.056837	6.170511	6.170511
Bi	4.113674	0.000000	0.000000
F	4.113674	2.056837	2.056837
F	6.170511	0.000000	2.056837
F	6.170511	2.056837	0.000000
O	6.170511	2.056837	2.056837
Bi	4.113674	0.000000	4.113674
F	4.113674	2.056837	6.170511
F	6.170511	0.000000	6.170511
F	6.170511	2.056837	4.113674
O	6.170511	2.056837	6.170511
Bi	4.113674	4.113674	0.000000
F	4.113674	6.170511	2.056837
F	6.170511	4.113674	2.056837
F	6.170511	6.170511	0.000000
O	6.170511	6.170511	2.056837
Bi	4.113674	4.113674	4.113674
F	4.113674	6.170511	6.170511
F	6.170511	4.113674	6.170511
F	6.170511	6.170511	4.113674
O	6.170511	6.170511	6.170511
