40

Co	0.000000	0.000000	0.000000
O	1.936100	1.936100	0.000000
O	1.936100	0.000000	1.936100
O	0.000000	1.936100	1.936100
Tc	1.936100	1.936100	1.936100
Co	0.000000	0.000000	3.872197
O	1.936100	1.936100	3.872197
O	1.936100	0.000000	5.808297
O	0.000000	1.936100	5.808297
Tc	1.936100	1.936100	5.808297
Co	0.000000	3.872197	0.000000
O	1.936100	5.808297	0.000000
O	1.936100	3.872197	1.936100
O	0.000000	5.808297	1.936100
Tc	1.936100	5.808297	1.936100
Co	0.000000	3.872197	3.872197
O	1.936100	5.808297	3.872197
O	1.936100	3.872197	5.808297
O	0.000000	5.808297	5.808297
Tc	1.936100	5.808297	5.808297
Co	3.872197	0.000000	0.000000
O	5.808297	1.936100	0.000000
O	5.808297	0.000000	1.936100
O	3.872197	1.936100	1.936100
Tc	5.808297	1.936100	1.936100
Co	3.872197	0.000000	3.872197
O	5.808297	1.936100	3.872197
O	5.808297	0.000000	5.808297
O	3.872197	1.936100	5.808297
Tc	5.808297	1.936100	5.808297
Co	3.872197	3.872197	0.000000
O	5.808297	5.808297	0.000000
O	5.808297	3.872197	1.936100
O	3.872197	5.808297	1.936100
Tc	5.808297	5.808297	1.936100
Co	3.872197	3.872197	3.872197
O	5.808297	5.808297	3.872197
O	5.808297	3.872197	5.808297
O	3.872197	5.808297	5.808297
Tc	5.808297	5.808297	5.808297
