40

As	0.000000	0.000000	0.000000
O	0.000000	2.076839	2.076839
O	2.076839	0.000000	2.076839
O	2.076839	2.076839	0.000000
Zr	2.076839	2.076839	2.076839
As	0.000000	0.000000	4.153678
O	0.000000	2.076839	6.230517
O	2.076839	0.000000	6.230517
O	2.076839	2.076839	4.153678
Zr	2.076839	2.076839	6.230517
As	0.000000	4.153678	0.000000
O	0.000000	6.230517	2.076839
O	2.076839	4.153678	2.076839
O	2.076839	6.230517	0.000000
Zr	2.076839	6.230517	2.076839
As	0.000000	4.153678	4.153678
O	0.000000	6.230517	6.230517
O	2.076839	4.153678	6.230517
O	2.076839	6.230517	4.153678
Zr	2.076839	6.230517	6.230517
As	4.153678	0.000000	0.000000
O	4.153678	2.076839	2.076839
O	6.230517	0.000000	2.076839
O	6.230517	2.076839	0.000000
Zr	6.230517	2.076839	2.076839
As	4.153678	0.000000	4.153678
O	4.153678	2.076839	6.230517
O	6.230517	0.000000	6.230517
O	6.230517	2.076839	4.153678
Zr	6.230517	2.076839	6.230517
As	4.153678	4.153678	0.000000
O	4.153678	6.230517	2.076839
O	6.230517	4.153678	2.076839
O	6.230517	6.230517	0.000000
Zr	6.230517	6.230517	2.076839
As	4.153678	4.153678	4.153678
O	4.153678	6.230517	6.230517
O	6.230517	4.153678	6.230517
O	6.230517	6.230517	4.153678
Zr	6.230517	6.230517	6.230517
