112

B	0.000000	0.000000	0.000000
B	2.328895	-2.329043	-2.329043
K	-1.164448	-1.164522	-3.493555
K	1.164448	1.164522	-3.493555
K	3.493343	1.164522	-1.164522
K	5.822248	-1.164522	-1.164522
O	0.834681	0.834869	-0.834869
O	-1.494224	1.494164	-3.163912
O	3.163577	-1.494164	-1.494164
O	1.494224	-1.494164	-3.163912
O	0.834681	3.823207	-3.823207
O	3.823119	3.823207	-0.834869
O	3.823119	0.834869	-3.823207
O	6.152015	1.494164	-1.494164
B	4.657797	4.658077	0.000000
B	6.986692	2.329034	-2.329043
K	3.493349	3.493555	-3.493555
K	5.822244	5.822598	-3.493555
K	8.151140	5.822598	-1.164522
K	10.480045	3.493555	-1.164522
O	5.492478	5.492946	-0.834869
O	3.163573	6.152241	-3.163912
O	7.821373	3.163912	-1.494164
O	6.152021	3.163912	-3.163912
O	5.492478	8.481284	-3.823207
O	8.480916	8.481284	-0.834869
O	8.480916	5.492946	-3.823207
O	10.809811	6.152241	-1.494164
B	-4.657797	0.000000	-4.658077
B	-2.328901	-2.329043	-6.987120
K	-5.822244	-1.164522	-8.151632
K	-3.493349	1.164522	-8.151632
K	-1.164453	1.164522	-5.822598
K	1.164452	-1.164522	-5.822598
O	-3.823115	0.834869	-5.492946
O	-6.152021	1.494164	-7.821989
O	-1.494220	-1.494164	-6.152241
O	-3.163573	-1.494164	-7.821989
O	-3.823115	3.823207	-8.481284
O	-0.834677	3.823207	-5.492946
O	-0.834677	0.834869	-8.481284
O	1.494218	1.494164	-6.152241
B	0.000000	4.658077	-4.658077
B	2.328895	2.329034	-6.987120
K	-1.164448	3.493555	-8.151632
K	1.164448	5.822598	-8.151632
K	3.493343	5.822598	-5.822598
K	5.822248	3.493555	-5.822598
O	0.834681	5.492946	-5.492946
O	-1.494224	6.152241	-7.821989
O	3.163577	3.163912	-6.152241
O	1.494224	3.163912	-7.821989
O	0.834681	8.481284	-8.481284
O	3.823119	8.481284	-5.492946
O	3.823119	5.492946	-8.481284
O	6.152015	6.152241	-6.152241
B	4.657797	-4.658077	0.000000
B	6.986692	-6.987120	-2.329043
K	3.493349	-5.822598	-3.493555
K	5.822244	-3.493555	-3.493555
K	8.151140	-3.493555	-1.164522
K	10.480045	-5.822598	-1.164522
O	5.492478	-3.823208	-0.834869
O	3.163573	-3.163913	-3.163912
O	7.821373	-6.152241	-1.494164
O	6.152021	-6.152241	-3.163912
O	5.492478	-0.834869	-3.823207
O	8.480916	-0.834869	-0.834869
O	8.480916	-3.823208	-3.823207
O	10.809811	-3.163913	-1.494164
B	9.315593	0.000000	0.000000
B	11.644489	-2.329043	-2.329043
K	8.151145	-1.164522	-3.493555
K	10.480041	1.164522	-3.493555
K	12.808936	1.164522	-1.164522
K	15.137842	-1.164522	-1.164522
O	10.150274	0.834869	-0.834869
O	7.821369	1.494164	-3.163912
O	12.479170	-1.494164	-1.494164
O	10.809817	-1.494164	-3.163912
O	10.150274	3.823207	-3.823207
O	13.138713	3.823207	-0.834869
O	13.138713	0.834869	-3.823207
O	15.467608	1.494164	-1.494164
B	0.000000	-4.658077	-4.658077
B	2.328895	-6.987120	-6.987120
K	-1.164448	-5.822598	-8.151632
K	1.164448	-3.493555	-8.151632
K	3.493343	-3.493555	-5.822598
K	5.822248	-5.822598	-5.822598
O	0.834681	-3.823208	-5.492946
O	-1.494224	-3.163913	-7.821989
O	3.163577	-6.152241	-6.152241
O	1.494224	-6.152241	-7.821989
O	0.834681	-0.834869	-8.481284
O	3.823119	-0.834869	-5.492946
O	3.823119	-3.823208	-8.481284
O	6.152015	-3.163913	-6.152241
B	4.657797	0.000000	-4.658077
B	6.986692	-2.329043	-6.987120
K	3.493349	-1.164522	-8.151632
K	5.822244	1.164522	-8.151632
K	8.151140	1.164522	-5.822598
K	10.480045	-1.164522	-5.822598
O	5.492478	0.834869	-5.492946
O	3.163573	1.494164	-7.821989
O	7.821373	-1.494164	-6.152241
O	6.152021	-1.494164	-7.821989
O	5.492478	3.823207	-8.481284
O	8.480916	3.823207	-5.492946
O	8.480916	0.834869	-8.481284
O	10.809811	1.494164	-6.152241
