40

O	0.000000	1.885247	1.885247
O	1.885247	0.000000	1.885247
O	1.885247	1.885247	0.000000
P	0.000000	0.000000	0.000000
S	1.885247	1.885247	1.885247
O	0.000000	1.885247	5.655740
O	1.885247	0.000000	5.655740
O	1.885247	1.885247	3.770493
P	0.000000	0.000000	3.770493
S	1.885247	1.885247	5.655740
O	0.000000	5.655740	1.885247
O	1.885247	3.770493	1.885247
O	1.885247	5.655740	0.000000
P	0.000000	3.770493	0.000000
S	1.885247	5.655740	1.885247
O	0.000000	5.655740	5.655740
O	1.885247	3.770493	5.655740
O	1.885247	5.655740	3.770493
P	0.000000	3.770493	3.770493
S	1.885247	5.655740	5.655740
O	3.770493	1.885247	1.885247
O	5.655740	0.000000	1.885247
O	5.655740	1.885247	0.000000
P	3.770493	0.000000	0.000000
S	5.655740	1.885247	1.885247
O	3.770493	1.885247	5.655740
O	5.655740	0.000000	5.655740
O	5.655740	1.885247	3.770493
P	3.770493	0.000000	3.770493
S	5.655740	1.885247	5.655740
O	3.770493	5.655740	1.885247
O	5.655740	3.770493	1.885247
O	5.655740	5.655740	0.000000
P	3.770493	3.770493	0.000000
S	5.655740	5.655740	1.885247
O	3.770493	5.655740	5.655740
O	5.655740	3.770493	5.655740
O	5.655740	5.655740	3.770493
P	3.770493	3.770493	3.770493
S	5.655740	5.655740	5.655740
