112

Cd	2.176701	-2.176701	0.000000
Cd	4.353401	0.000000	0.000000
Cd	0.000000	2.176701	-2.176701
Cd	2.176701	0.000000	-2.176701
O	-0.127383	-0.127383	-2.049317
O	2.049317	-2.304084	-2.304084
O	-2.304084	0.127383	-4.226018
O	0.127383	-2.304084	-4.226018
O	4.226018	2.304084	-0.127383
O	6.657485	-0.127383	-0.127383
O	2.304084	2.304084	-2.049317
O	4.480785	0.127383	-2.304084
Si	1.088350	-3.265051	-3.265051
Si	3.265051	3.265051	-1.088350
Cd	6.530102	2.176701	0.000000
Cd	8.706802	4.353401	0.000000
Cd	4.353401	6.530102	-2.176701
Cd	6.530102	4.353401	-2.176701
O	4.226018	4.226018	-2.049317
O	6.402718	2.049317	-2.304084
O	2.049317	4.480785	-4.226018
O	4.480785	2.049317	-4.226018
O	8.579419	6.657485	-0.127383
O	11.010886	4.226018	-0.127383
O	6.657485	6.657485	-2.049317
O	8.834186	4.480785	-2.304084
Si	5.441751	1.088350	-3.265051
Si	7.618452	7.618452	-1.088350
Cd	-2.176701	-2.176701	-4.353401
Cd	0.000000	0.000000	-4.353401
Cd	-4.353401	2.176701	-6.530102
Cd	-2.176701	0.000000	-6.530102
O	-4.480785	-0.127383	-6.402718
O	-2.304084	-2.304084	-6.657485
O	-6.657485	0.127383	-8.579419
O	-4.226018	-2.304084	-8.579419
O	-0.127383	2.304084	-4.480785
O	2.304084	-0.127383	-4.480785
O	-2.049317	2.304084	-6.402718
O	0.127383	0.127383	-6.657485
Si	-3.265051	-3.265051	-7.618452
Si	-1.088350	3.265051	-5.441751
Cd	2.176701	2.176701	-4.353401
Cd	4.353401	4.353401	-4.353401
Cd	0.000000	6.530102	-6.530102
Cd	2.176701	4.353401	-6.530102
O	-0.127383	4.226018	-6.402718
O	2.049317	2.049317	-6.657485
O	-2.304084	4.480785	-8.579419
O	0.127383	2.049317	-8.579419
O	4.226018	6.657485	-4.480785
O	6.657485	4.226018	-4.480785
O	2.304084	6.657485	-6.402718
O	4.480785	4.480785	-6.657485
Si	1.088350	1.088350	-7.618452
Si	3.265051	7.618452	-5.441751
Cd	6.530102	-6.530102	0.000000
Cd	8.706802	-4.353401	0.000000
Cd	4.353401	-2.176701	-2.176701
Cd	6.530102	-4.353401	-2.176701
O	4.226018	-4.480785	-2.049317
O	6.402718	-6.657485	-2.304084
O	2.049317	-4.226018	-4.226018
O	4.480785	-6.657485	-4.226018
O	8.579419	-2.049317	-0.127383
O	11.010886	-4.480785	-0.127383
O	6.657485	-2.049317	-2.049317
O	8.834186	-4.226018	-2.304084
Si	5.441751	-7.618452	-3.265051
Si	7.618452	-1.088350	-1.088350
Cd	10.883503	-2.176701	0.000000
Cd	13.060203	0.000000	0.000000
Cd	8.706802	2.176701	-2.176701
Cd	10.883503	0.000000	-2.176701
O	8.579419	-0.127383	-2.049317
O	10.756119	-2.304084	-2.304084
O	6.402718	0.127383	-4.226018
O	8.834186	-2.304084	-4.226018
O	12.932820	2.304084	-0.127383
O	15.364287	-0.127383	-0.127383
O	11.010886	2.304084	-2.049317
O	13.187587	0.127383	-2.304084
Si	9.795153	-3.265051	-3.265051
Si	11.971853	3.265051	-1.088350
Cd	2.176701	-6.530102	-4.353401
Cd	4.353401	-4.353401	-4.353401
Cd	0.000000	-2.176701	-6.530102
Cd	2.176701	-4.353401	-6.530102
O	-0.127383	-4.480785	-6.402718
O	2.049317	-6.657485	-6.657485
O	-2.304084	-4.226018	-8.579419
O	0.127383	-6.657485	-8.579419
O	4.226018	-2.049317	-4.480785
O	6.657485	-4.480785	-4.480785
O	2.304084	-2.049317	-6.402718
O	4.480785	-4.226018	-6.657485
Si	1.088350	-7.618452	-7.618452
Si	3.265051	-1.088350	-5.441751
Cd	6.530102	-2.176701	-4.353401
Cd	8.706802	0.000000	-4.353401
Cd	4.353401	2.176701	-6.530102
Cd	6.530102	0.000000	-6.530102
O	4.226018	-0.127383	-6.402718
O	6.402718	-2.304084	-6.657485
O	2.049317	0.127383	-8.579419
O	4.480785	-2.304084	-8.579419
O	8.579419	2.304084	-4.480785
O	11.010886	-0.127383	-4.480785
O	6.657485	2.304084	-6.402718
O	8.834186	0.127383	-6.657485
Si	5.441751	-3.265051	-7.618452
Si	7.618452	3.265051	-5.441751
