112

Cs	0.000000	0.000000	0.000000
Cs	2.360591	-2.361150	-2.361150
O	3.832064	-0.888890	-0.888890
O	-0.889117	0.888890	-3.833400
O	0.889117	-0.888890	-3.833400
O	1.471473	1.472250	-1.472250
O	5.610309	0.888890	-0.888890
O	1.471474	3.250039	-3.250039
O	3.249718	3.250039	-1.472250
O	3.249718	1.472250	-3.250039
Tc	-1.180295	-1.180575	-3.541715
Tc	1.180295	1.180575	-3.541715
Tc	5.901487	-1.180575	-1.180575
Tc	3.540896	1.180575	-1.180575
Cs	4.721190	4.722292	0.000000
Cs	7.081781	2.361143	-2.361150
O	8.553254	3.833403	-0.888890
O	3.832073	5.611182	-3.833400
O	5.610307	3.833403	-3.833400
O	6.192664	6.194542	-1.472250
O	10.331499	5.611182	-0.888890
O	6.192664	7.972332	-3.250039
O	7.970908	7.972332	-1.472250
O	7.970908	6.194542	-3.250039
Tc	3.540895	3.541717	-3.541715
Tc	5.901486	5.902867	-3.541715
Tc	10.622677	3.541717	-1.180575
Tc	8.262086	5.902867	-1.180575
Cs	-4.721190	0.000000	-4.722292
Cs	-2.360599	-2.361150	-7.083442
O	-0.889126	-0.888890	-5.611182
O	-5.610307	0.888890	-8.555692
O	-3.832073	-0.888890	-8.555692
O	-3.249717	1.472250	-6.194542
O	0.889119	0.888890	-5.611182
O	-3.249717	3.250039	-7.972332
O	-1.471472	3.250039	-6.194542
O	-1.471472	1.472250	-7.972332
Tc	-5.901486	-1.180575	-8.264007
Tc	-3.540895	1.180575	-8.264007
Tc	1.180297	-1.180575	-5.902867
Tc	-1.180294	1.180575	-5.902867
Cs	0.000000	4.722292	-4.722292
Cs	2.360591	2.361143	-7.083442
O	3.832064	3.833403	-5.611182
O	-0.889117	5.611182	-8.555692
O	0.889117	3.833403	-8.555692
O	1.471473	6.194542	-6.194542
O	5.610309	5.611182	-5.611182
O	1.471474	7.972332	-7.972332
O	3.249718	7.972332	-6.194542
O	3.249718	6.194542	-7.972332
Tc	-1.180295	3.541717	-8.264007
Tc	1.180295	5.902867	-8.264007
Tc	5.901487	3.541717	-5.902867
Tc	3.540896	5.902867	-5.902867
Cs	4.721190	-4.722292	0.000000
Cs	7.081781	-7.083442	-2.361150
O	8.553254	-5.611182	-0.888890
O	3.832073	-3.833403	-3.833400
O	5.610307	-5.611182	-3.833400
O	6.192664	-3.250042	-1.472250
O	10.331499	-3.833403	-0.888890
O	6.192664	-1.472253	-3.250039
O	7.970908	-1.472253	-1.472250
O	7.970908	-3.250042	-3.250039
Tc	3.540895	-5.902867	-3.541715
Tc	5.901486	-3.541717	-3.541715
Tc	10.622677	-5.902867	-1.180575
Tc	8.262086	-3.541717	-1.180575
Cs	9.442380	0.000000	0.000000
Cs	11.802971	-2.361150	-2.361150
O	13.274445	-0.888890	-0.888890
O	8.553263	0.888890	-3.833400
O	10.331498	-0.888890	-3.833400
O	10.913854	1.472250	-1.472250
O	15.052689	0.888890	-0.888890
O	10.913854	3.250039	-3.250039
O	12.692098	3.250039	-1.472250
O	12.692098	1.472250	-3.250039
Tc	8.262085	-1.180575	-3.541715
Tc	10.622676	1.180575	-3.541715
Tc	15.343867	-1.180575	-1.180575
Tc	12.983276	1.180575	-1.180575
Cs	0.000000	-4.722292	-4.722292
Cs	2.360591	-7.083442	-7.083442
O	3.832064	-5.611182	-5.611182
O	-0.889117	-3.833403	-8.555692
O	0.889117	-5.611182	-8.555692
O	1.471473	-3.250042	-6.194542
O	5.610309	-3.833403	-5.611182
O	1.471474	-1.472253	-7.972332
O	3.249718	-1.472253	-6.194542
O	3.249718	-3.250042	-7.972332
Tc	-1.180295	-5.902867	-8.264007
Tc	1.180295	-3.541717	-8.264007
Tc	5.901487	-5.902867	-5.902867
Tc	3.540896	-3.541717	-5.902867
Cs	4.721190	0.000000	-4.722292
Cs	7.081781	-2.361150	-7.083442
O	8.553254	-0.888890	-5.611182
O	3.832073	0.888890	-8.555692
O	5.610307	-0.888890	-8.555692
O	6.192664	1.472250	-6.194542
O	10.331499	0.888890	-5.611182
O	6.192664	3.250039	-7.972332
O	7.970908	3.250039	-6.194542
O	7.970908	1.472250	-7.972332
Tc	3.540895	-1.180575	-8.264007
Tc	5.901486	1.180575	-8.264007
Tc	10.622677	-1.180575	-5.902867
Tc	8.262086	1.180575	-5.902867
