40

Cd	2.070405	2.070405	2.070405
In	0.000000	0.000000	0.000000
O	0.000000	2.070405	2.070405
O	2.070405	0.000000	2.070405
O	2.070405	2.070405	0.000000
Cd	2.070405	2.070405	6.211215
In	0.000000	0.000000	4.140810
O	0.000000	2.070405	6.211215
O	2.070405	0.000000	6.211215
O	2.070405	2.070405	4.140810
Cd	2.070405	6.211215	2.070405
In	0.000000	4.140810	0.000000
O	0.000000	6.211215	2.070405
O	2.070405	4.140810	2.070405
O	2.070405	6.211215	0.000000
Cd	2.070405	6.211215	6.211215
In	0.000000	4.140810	4.140810
O	0.000000	6.211215	6.211215
O	2.070405	4.140810	6.211215
O	2.070405	6.211215	4.140810
Cd	6.211215	2.070405	2.070405
In	4.140810	0.000000	0.000000
O	4.140810	2.070405	2.070405
O	6.211215	0.000000	2.070405
O	6.211215	2.070405	0.000000
Cd	6.211215	2.070405	6.211215
In	4.140810	0.000000	4.140810
O	4.140810	2.070405	6.211215
O	6.211215	0.000000	6.211215
O	6.211215	2.070405	4.140810
Cd	6.211215	6.211215	2.070405
In	4.140810	4.140810	0.000000
O	4.140810	6.211215	2.070405
O	6.211215	4.140810	2.070405
O	6.211215	6.211215	0.000000
Cd	6.211215	6.211215	6.211215
In	4.140810	4.140810	4.140810
O	4.140810	6.211215	6.211215
O	6.211215	4.140810	6.211215
O	6.211215	6.211215	4.140810
