112

Lu	0.000000	0.000000	0.000000
Lu	2.203136	-2.203477	-2.203477
Mg	-1.101568	-1.101739	-3.305216
Mg	3.304703	1.101739	-1.101739
Mg	5.507839	-1.101739	-1.101739
Mg	1.101568	1.101739	-3.305216
O	3.404443	-1.001343	-1.001343
O	-1.001829	1.001343	-3.405612
O	1.001829	-1.001343	-3.405612
O	1.201307	1.202134	-1.202134
O	5.408100	1.001343	-1.001343
O	1.201307	3.204821	-3.204821
O	3.204964	3.204821	-1.202134
O	3.204964	1.202134	-3.204821
Lu	4.406271	4.406955	0.000000
Lu	6.609407	2.203477	-2.203477
Mg	3.304703	3.305216	-3.305216
Mg	7.710975	5.508693	-1.101739
Mg	9.914110	3.305216	-1.101739
Mg	5.507839	5.508693	-3.305216
O	7.810714	3.405612	-1.001343
O	3.404443	5.408298	-3.405612
O	5.408100	3.405612	-3.405612
O	5.607578	5.609089	-1.202134
O	9.814371	5.408298	-1.001343
O	5.607578	7.611775	-3.204821
O	7.611235	7.611775	-1.202134
O	7.611235	5.609089	-3.204821
Lu	-4.406271	0.000000	-4.406955
Lu	-2.203136	-2.203477	-6.610432
Mg	-5.507839	-1.101739	-7.712171
Mg	-1.101568	1.101739	-5.508693
Mg	1.101568	-1.101739	-5.508693
Mg	-3.304703	1.101739	-7.712171
O	-1.001829	-1.001343	-5.408298
O	-5.408100	1.001343	-7.812566
O	-3.404443	-1.001343	-7.812566
O	-3.204964	1.202134	-5.609089
O	1.001829	1.001343	-5.408298
O	-3.204964	3.204821	-7.611775
O	-1.201307	3.204821	-5.609089
O	-1.201307	1.202134	-7.611775
Lu	0.000000	4.406955	-4.406955
Lu	2.203136	2.203477	-6.610432
Mg	-1.101568	3.305216	-7.712171
Mg	3.304703	5.508693	-5.508693
Mg	5.507839	3.305216	-5.508693
Mg	1.101568	5.508693	-7.712171
O	3.404443	3.405612	-5.408298
O	-1.001829	5.408298	-7.812566
O	1.001829	3.405612	-7.812566
O	1.201307	5.609089	-5.609089
O	5.408100	5.408298	-5.408298
O	1.201307	7.611775	-7.611775
O	3.204964	7.611775	-5.609089
O	3.204964	5.609089	-7.611775
Lu	4.406271	-4.406955	0.000000
Lu	6.609407	-6.610432	-2.203477
Mg	3.304703	-5.508693	-3.305216
Mg	7.710975	-3.305216	-1.101739
Mg	9.914110	-5.508693	-1.101739
Mg	5.507839	-3.305216	-3.305216
O	7.810714	-5.408298	-1.001343
O	3.404443	-3.405612	-3.405612
O	5.408100	-5.408298	-3.405612
O	5.607578	-3.204821	-1.202134
O	9.814371	-3.405612	-1.001343
O	5.607578	-1.202134	-3.204821
O	7.611235	-1.202134	-1.202134
O	7.611235	-3.204821	-3.204821
Lu	8.812542	0.000000	0.000000
Lu	11.015678	-2.203477	-2.203477
Mg	7.710975	-1.101739	-3.305216
Mg	12.117246	1.101739	-1.101739
Mg	14.320381	-1.101739	-1.101739
Mg	9.914110	1.101739	-3.305216
O	12.216985	-1.001343	-1.001343
O	7.810714	1.001343	-3.405612
O	9.814371	-1.001343	-3.405612
O	10.013850	1.202134	-1.202134
O	14.220642	1.001343	-1.001343
O	10.013850	3.204821	-3.204821
O	12.017507	3.204821	-1.202134
O	12.017507	1.202134	-3.204821
Lu	0.000000	-4.406955	-4.406955
Lu	2.203136	-6.610432	-6.610432
Mg	-1.101568	-5.508693	-7.712171
Mg	3.304703	-3.305216	-5.508693
Mg	5.507839	-5.508693	-5.508693
Mg	1.101568	-3.305216	-7.712171
O	3.404443	-5.408298	-5.408298
O	-1.001829	-3.405612	-7.812566
O	1.001829	-5.408298	-7.812566
O	1.201307	-3.204821	-5.609089
O	5.408100	-3.405612	-5.408298
O	1.201307	-1.202134	-7.611775
O	3.204964	-1.202134	-5.609089
O	3.204964	-3.204821	-7.611775
Lu	4.406271	0.000000	-4.406955
Lu	6.609407	-2.203477	-6.610432
Mg	3.304703	-1.101739	-7.712171
Mg	7.710975	1.101739	-5.508693
Mg	9.914110	-1.101739	-5.508693
Mg	5.507839	1.101739	-7.712171
O	7.810714	-1.001343	-5.408298
O	3.404443	1.001343	-7.812566
O	5.408100	-1.001343	-7.812566
O	5.607578	1.202134	-5.609089
O	9.814371	1.001343	-5.408298
O	5.607578	3.204821	-7.611775
O	7.611235	3.204821	-5.609089
O	7.611235	1.202134	-7.611775
