40

Hg	0.000000	0.000000	0.000000
Nb	2.024571	2.024571	2.024571
O	0.000000	2.024571	2.024571
O	2.024571	0.000000	2.024571
O	2.024571	2.024571	0.000000
Hg	0.000000	0.000000	4.049143
Nb	2.024571	2.024571	6.073714
O	0.000000	2.024571	6.073714
O	2.024571	0.000000	6.073714
O	2.024571	2.024571	4.049143
Hg	0.000000	4.049143	0.000000
Nb	2.024571	6.073714	2.024571
O	0.000000	6.073714	2.024571
O	2.024571	4.049143	2.024571
O	2.024571	6.073714	0.000000
Hg	0.000000	4.049143	4.049143
Nb	2.024571	6.073714	6.073714
O	0.000000	6.073714	6.073714
O	2.024571	4.049143	6.073714
O	2.024571	6.073714	4.049143
Hg	4.049143	0.000000	0.000000
Nb	6.073714	2.024571	2.024571
O	4.049143	2.024571	2.024571
O	6.073714	0.000000	2.024571
O	6.073714	2.024571	0.000000
Hg	4.049143	0.000000	4.049143
Nb	6.073714	2.024571	6.073714
O	4.049143	2.024571	6.073714
O	6.073714	0.000000	6.073714
O	6.073714	2.024571	4.049143
Hg	4.049143	4.049143	0.000000
Nb	6.073714	6.073714	2.024571
O	4.049143	6.073714	2.024571
O	6.073714	4.049143	2.024571
O	6.073714	6.073714	0.000000
Hg	4.049143	4.049143	4.049143
Nb	6.073714	6.073714	6.073714
O	4.049143	6.073714	6.073714
O	6.073714	4.049143	6.073714
O	6.073714	6.073714	4.049143
