40

Ag	0.000000	0.000000	0.000000
B	1.736114	1.736114	1.736114
O	1.736114	1.736114	0.000000
O	1.736114	0.000000	1.736114
O	0.000000	1.736114	1.736114
Ag	0.000000	0.000000	3.472228
B	1.736114	1.736114	5.208342
O	1.736114	1.736114	3.472228
O	1.736114	0.000000	5.208342
O	0.000000	1.736114	5.208342
Ag	0.000000	3.472228	0.000000
B	1.736114	5.208342	1.736114
O	1.736114	5.208342	0.000000
O	1.736114	3.472228	1.736114
O	0.000000	5.208342	1.736114
Ag	0.000000	3.472228	3.472228
B	1.736114	5.208342	5.208342
O	1.736114	5.208342	3.472228
O	1.736114	3.472228	5.208342
O	0.000000	5.208342	5.208342
Ag	3.472228	0.000000	0.000000
B	5.208342	1.736114	1.736114
O	5.208342	1.736114	0.000000
O	5.208342	0.000000	1.736114
O	3.472228	1.736114	1.736114
Ag	3.472228	0.000000	3.472228
B	5.208342	1.736114	5.208342
O	5.208342	1.736114	3.472228
O	5.208342	0.000000	5.208342
O	3.472228	1.736114	5.208342
Ag	3.472228	3.472228	0.000000
B	5.208342	5.208342	1.736114
O	5.208342	5.208342	0.000000
O	5.208342	3.472228	1.736114
O	3.472228	5.208342	1.736114
Ag	3.472228	3.472228	3.472228
B	5.208342	5.208342	5.208342
O	5.208342	5.208342	3.472228
O	5.208342	3.472228	5.208342
O	3.472228	5.208342	5.208342
