40

Ag	2.005634	2.005634	2.005634
B	0.000000	0.000000	0.000000
O	0.000000	2.005634	2.005634
O	2.005634	0.000000	2.005634
O	2.005634	2.005634	0.000000
Ag	2.005634	2.005634	6.016902
B	0.000000	0.000000	4.011268
O	0.000000	2.005634	6.016902
O	2.005634	0.000000	6.016902
O	2.005634	2.005634	4.011268
Ag	2.005634	6.016902	2.005634
B	0.000000	4.011268	0.000000
O	0.000000	6.016902	2.005634
O	2.005634	4.011268	2.005634
O	2.005634	6.016902	0.000000
Ag	2.005634	6.016902	6.016902
B	0.000000	4.011268	4.011268
O	0.000000	6.016902	6.016902
O	2.005634	4.011268	6.016902
O	2.005634	6.016902	4.011268
Ag	6.016902	2.005634	2.005634
B	4.011268	0.000000	0.000000
O	4.011268	2.005634	2.005634
O	6.016902	0.000000	2.005634
O	6.016902	2.005634	0.000000
Ag	6.016902	2.005634	6.016902
B	4.011268	0.000000	4.011268
O	4.011268	2.005634	6.016902
O	6.016902	0.000000	6.016902
O	6.016902	2.005634	4.011268
Ag	6.016902	6.016902	2.005634
B	4.011268	4.011268	0.000000
O	4.011268	6.016902	2.005634
O	6.016902	4.011268	2.005634
O	6.016902	6.016902	0.000000
Ag	6.016902	6.016902	6.016902
B	4.011268	4.011268	4.011268
O	4.011268	6.016902	6.016902
O	6.016902	4.011268	6.016902
O	6.016902	6.016902	4.011268
