40

Ag	2.003308	2.003308	2.003308
B	0.000000	0.000000	0.000000
O	2.003308	2.003308	0.000000
O	2.003308	0.000000	2.003308
O	0.000000	2.003308	2.003308
Ag	2.003308	2.003308	6.009924
B	0.000000	0.000000	4.006616
O	2.003308	2.003308	4.006616
O	2.003308	0.000000	6.009924
O	0.000000	2.003308	6.009924
Ag	2.003308	6.009924	2.003308
B	0.000000	4.006616	0.000000
O	2.003308	6.009924	0.000000
O	2.003308	4.006616	2.003308
O	0.000000	6.009924	2.003308
Ag	2.003308	6.009924	6.009924
B	0.000000	4.006616	4.006616
O	2.003308	6.009924	4.006616
O	2.003308	4.006616	6.009924
O	0.000000	6.009924	6.009924
Ag	6.009924	2.003308	2.003308
B	4.006616	0.000000	0.000000
O	6.009924	2.003308	0.000000
O	6.009924	0.000000	2.003308
O	4.006616	2.003308	2.003308
Ag	6.009924	2.003308	6.009924
B	4.006616	0.000000	4.006616
O	6.009924	2.003308	4.006616
O	6.009924	0.000000	6.009924
O	4.006616	2.003308	6.009924
Ag	6.009924	6.009924	2.003308
B	4.006616	4.006616	0.000000
O	6.009924	6.009924	0.000000
O	6.009924	4.006616	2.003308
O	4.006616	6.009924	2.003308
Ag	6.009924	6.009924	6.009924
B	4.006616	4.006616	4.006616
O	6.009924	6.009924	4.006616
O	6.009924	4.006616	6.009924
O	4.006616	6.009924	6.009924
