40

Ni	0.000000	0.000000	0.000000
O	0.000000	2.103148	2.103148
O	2.103148	0.000000	2.103148
O	2.103148	2.103148	0.000000
Pb	2.103148	2.103148	2.103148
Ni	0.000000	0.000000	4.206297
O	0.000000	2.103148	6.309445
O	2.103148	0.000000	6.309445
O	2.103148	2.103148	4.206297
Pb	2.103148	2.103148	6.309445
Ni	0.000000	4.206297	0.000000
O	0.000000	6.309445	2.103148
O	2.103148	4.206297	2.103148
O	2.103148	6.309445	0.000000
Pb	2.103148	6.309445	2.103148
Ni	0.000000	4.206297	4.206297
O	0.000000	6.309445	6.309445
O	2.103148	4.206297	6.309445
O	2.103148	6.309445	4.206297
Pb	2.103148	6.309445	6.309445
Ni	4.206297	0.000000	0.000000
O	4.206297	2.103148	2.103148
O	6.309445	0.000000	2.103148
O	6.309445	2.103148	0.000000
Pb	6.309445	2.103148	2.103148
Ni	4.206297	0.000000	4.206297
O	4.206297	2.103148	6.309445
O	6.309445	0.000000	6.309445
O	6.309445	2.103148	4.206297
Pb	6.309445	2.103148	6.309445
Ni	4.206297	4.206297	0.000000
O	4.206297	6.309445	2.103148
O	6.309445	4.206297	2.103148
O	6.309445	6.309445	0.000000
Pb	6.309445	6.309445	2.103148
Ni	4.206297	4.206297	4.206297
O	4.206297	6.309445	6.309445
O	6.309445	4.206297	6.309445
O	6.309445	6.309445	4.206297
Pb	6.309445	6.309445	6.309445
