40

Hg	0.000000	0.000000	0.000000
O	1.912310	0.000000	1.912310
O	0.000000	1.912310	1.912310
O	1.912310	1.912310	0.000000
V	1.912310	1.912310	1.912310
Hg	0.000000	0.000000	3.824626
O	1.912310	0.000000	5.736936
O	0.000000	1.912310	5.736936
O	1.912310	1.912310	3.824626
V	1.912310	1.912310	5.736936
Hg	0.000000	3.824626	0.000000
O	1.912310	3.824626	1.912310
O	0.000000	5.736936	1.912310
O	1.912310	5.736936	0.000000
V	1.912310	5.736936	1.912310
Hg	0.000000	3.824626	3.824626
O	1.912310	3.824626	5.736936
O	0.000000	5.736936	5.736936
O	1.912310	5.736936	3.824626
V	1.912310	5.736936	5.736936
Hg	3.824626	0.000000	0.000000
O	5.736936	0.000000	1.912310
O	3.824626	1.912310	1.912310
O	5.736936	1.912310	0.000000
V	5.736936	1.912310	1.912310
Hg	3.824626	0.000000	3.824626
O	5.736936	0.000000	5.736936
O	3.824626	1.912310	5.736936
O	5.736936	1.912310	3.824626
V	5.736936	1.912310	5.736936
Hg	3.824626	3.824626	0.000000
O	5.736936	3.824626	1.912310
O	3.824626	5.736936	1.912310
O	5.736936	5.736936	0.000000
V	5.736936	5.736936	1.912310
Hg	3.824626	3.824626	3.824626
O	5.736936	3.824626	5.736936
O	3.824626	5.736936	5.736936
O	5.736936	5.736936	3.824626
V	5.736936	5.736936	5.736936
