40

Mo	1.943210	1.943210	1.943210
N	0.000000	0.000000	0.000000
O	0.000000	1.943210	1.943210
O	1.943210	0.000000	1.943210
O	1.943210	1.943210	0.000000
Mo	1.943210	1.943210	5.829631
N	0.000000	0.000000	3.886421
O	0.000000	1.943210	5.829631
O	1.943210	0.000000	5.829631
O	1.943210	1.943210	3.886421
Mo	1.943210	5.829631	1.943210
N	0.000000	3.886421	0.000000
O	0.000000	5.829631	1.943210
O	1.943210	3.886421	1.943210
O	1.943210	5.829631	0.000000
Mo	1.943210	5.829631	5.829631
N	0.000000	3.886421	3.886421
O	0.000000	5.829631	5.829631
O	1.943210	3.886421	5.829631
O	1.943210	5.829631	3.886421
Mo	5.829631	1.943210	1.943210
N	3.886421	0.000000	0.000000
O	3.886421	1.943210	1.943210
O	5.829631	0.000000	1.943210
O	5.829631	1.943210	0.000000
Mo	5.829631	1.943210	5.829631
N	3.886421	0.000000	3.886421
O	3.886421	1.943210	5.829631
O	5.829631	0.000000	5.829631
O	5.829631	1.943210	3.886421
Mo	5.829631	5.829631	1.943210
N	3.886421	3.886421	0.000000
O	3.886421	5.829631	1.943210
O	5.829631	3.886421	1.943210
O	5.829631	5.829631	0.000000
Mo	5.829631	5.829631	5.829631
N	3.886421	3.886421	3.886421
O	3.886421	5.829631	5.829631
O	5.829631	3.886421	5.829631
O	5.829631	5.829631	3.886421
