40

Au	0.000000	0.000000	0.000000
O	0.000000	1.820415	1.820415
O	1.820415	0.000000	1.820415
O	1.820415	1.820415	0.000000
P	1.820415	1.820415	1.820415
Au	0.000000	0.000000	3.640830
O	0.000000	1.820415	5.461246
O	1.820415	0.000000	5.461246
O	1.820415	1.820415	3.640830
P	1.820415	1.820415	5.461246
Au	0.000000	3.640830	0.000000
O	0.000000	5.461246	1.820415
O	1.820415	3.640830	1.820415
O	1.820415	5.461246	0.000000
P	1.820415	5.461246	1.820415
Au	0.000000	3.640830	3.640830
O	0.000000	5.461246	5.461246
O	1.820415	3.640830	5.461246
O	1.820415	5.461246	3.640830
P	1.820415	5.461246	5.461246
Au	3.640830	0.000000	0.000000
O	3.640830	1.820415	1.820415
O	5.461246	0.000000	1.820415
O	5.461246	1.820415	0.000000
P	5.461246	1.820415	1.820415
Au	3.640830	0.000000	3.640830
O	3.640830	1.820415	5.461246
O	5.461246	0.000000	5.461246
O	5.461246	1.820415	3.640830
P	5.461246	1.820415	5.461246
Au	3.640830	3.640830	0.000000
O	3.640830	5.461246	1.820415
O	5.461246	3.640830	1.820415
O	5.461246	5.461246	0.000000
P	5.461246	5.461246	1.820415
Au	3.640830	3.640830	3.640830
O	3.640830	5.461246	5.461246
O	5.461246	3.640830	5.461246
O	5.461246	5.461246	3.640830
P	5.461246	5.461246	5.461246
