40

Hf	2.054494	2.054494	2.054494
O	0.000000	2.054494	2.054494
O	2.054494	0.000000	2.054494
O	2.054494	2.054494	0.000000
Re	0.000000	0.000000	0.000000
Hf	2.054494	2.054494	6.163481
O	0.000000	2.054494	6.163481
O	2.054494	0.000000	6.163481
O	2.054494	2.054494	4.108987
Re	0.000000	0.000000	4.108987
Hf	2.054494	6.163481	2.054494
O	0.000000	6.163481	2.054494
O	2.054494	4.108987	2.054494
O	2.054494	6.163481	0.000000
Re	0.000000	4.108987	0.000000
Hf	2.054494	6.163481	6.163481
O	0.000000	6.163481	6.163481
O	2.054494	4.108987	6.163481
O	2.054494	6.163481	4.108987
Re	0.000000	4.108987	4.108987
Hf	6.163481	2.054494	2.054494
O	4.108987	2.054494	2.054494
O	6.163481	0.000000	2.054494
O	6.163481	2.054494	0.000000
Re	4.108987	0.000000	0.000000
Hf	6.163481	2.054494	6.163481
O	4.108987	2.054494	6.163481
O	6.163481	0.000000	6.163481
O	6.163481	2.054494	4.108987
Re	4.108987	0.000000	4.108987
Hf	6.163481	6.163481	2.054494
O	4.108987	6.163481	2.054494
O	6.163481	4.108987	2.054494
O	6.163481	6.163481	0.000000
Re	4.108987	4.108987	0.000000
Hf	6.163481	6.163481	6.163481
O	4.108987	6.163481	6.163481
O	6.163481	4.108987	6.163481
O	6.163481	6.163481	4.108987
Re	4.108987	4.108987	4.108987
