40

As	1.914820	1.914820	1.914820
Ga	0.000000	0.000000	0.000000
O	1.914820	1.914820	0.000000
O	1.914820	0.000000	1.914820
O	0.000000	1.914820	1.914820
As	1.914820	1.914820	5.744461
Ga	0.000000	0.000000	3.829640
O	1.914820	1.914820	3.829640
O	1.914820	0.000000	5.744461
O	0.000000	1.914820	5.744461
As	1.914820	5.744461	1.914820
Ga	0.000000	3.829640	0.000000
O	1.914820	5.744461	0.000000
O	1.914820	3.829640	1.914820
O	0.000000	5.744461	1.914820
As	1.914820	5.744461	5.744461
Ga	0.000000	3.829640	3.829640
O	1.914820	5.744461	3.829640
O	1.914820	3.829640	5.744461
O	0.000000	5.744461	5.744461
As	5.744461	1.914820	1.914820
Ga	3.829640	0.000000	0.000000
O	5.744461	1.914820	0.000000
O	5.744461	0.000000	1.914820
O	3.829640	1.914820	1.914820
As	5.744461	1.914820	5.744461
Ga	3.829640	0.000000	3.829640
O	5.744461	1.914820	3.829640
O	5.744461	0.000000	5.744461
O	3.829640	1.914820	5.744461
As	5.744461	5.744461	1.914820
Ga	3.829640	3.829640	0.000000
O	5.744461	5.744461	0.000000
O	5.744461	3.829640	1.914820
O	3.829640	5.744461	1.914820
As	5.744461	5.744461	5.744461
Ga	3.829640	3.829640	3.829640
O	5.744461	5.744461	3.829640
O	5.744461	3.829640	5.744461
O	3.829640	5.744461	5.744461
