40

As	1.913373	1.913373	1.913373
Ga	0.000000	0.000000	0.000000
O	0.000000	1.913373	1.913373
O	1.913373	0.000000	1.913373
O	1.913373	1.913373	0.000000
As	1.913373	1.913373	5.740118
Ga	0.000000	0.000000	3.826745
O	0.000000	1.913373	5.740118
O	1.913373	0.000000	5.740118
O	1.913373	1.913373	3.826745
As	1.913373	5.740118	1.913373
Ga	0.000000	3.826745	0.000000
O	0.000000	5.740118	1.913373
O	1.913373	3.826745	1.913373
O	1.913373	5.740118	0.000000
As	1.913373	5.740118	5.740118
Ga	0.000000	3.826745	3.826745
O	0.000000	5.740118	5.740118
O	1.913373	3.826745	5.740118
O	1.913373	5.740118	3.826745
As	5.740118	1.913373	1.913373
Ga	3.826745	0.000000	0.000000
O	3.826745	1.913373	1.913373
O	5.740118	0.000000	1.913373
O	5.740118	1.913373	0.000000
As	5.740118	1.913373	5.740118
Ga	3.826745	0.000000	3.826745
O	3.826745	1.913373	5.740118
O	5.740118	0.000000	5.740118
O	5.740118	1.913373	3.826745
As	5.740118	5.740118	1.913373
Ga	3.826745	3.826745	0.000000
O	3.826745	5.740118	1.913373
O	5.740118	3.826745	1.913373
O	5.740118	5.740118	0.000000
As	5.740118	5.740118	5.740118
Ga	3.826745	3.826745	3.826745
O	3.826745	5.740118	5.740118
O	5.740118	3.826745	5.740118
O	5.740118	5.740118	3.826745
