40

As	0.000000	0.000000	0.000000
I	2.098973	2.098973	2.098973
O	0.000000	2.098973	2.098973
O	2.098973	0.000000	2.098973
O	2.098973	2.098973	0.000000
As	0.000000	0.000000	4.197946
I	2.098973	2.098973	6.296919
O	0.000000	2.098973	6.296919
O	2.098973	0.000000	6.296919
O	2.098973	2.098973	4.197946
As	0.000000	4.197946	0.000000
I	2.098973	6.296919	2.098973
O	0.000000	6.296919	2.098973
O	2.098973	4.197946	2.098973
O	2.098973	6.296919	0.000000
As	0.000000	4.197946	4.197946
I	2.098973	6.296919	6.296919
O	0.000000	6.296919	6.296919
O	2.098973	4.197946	6.296919
O	2.098973	6.296919	4.197946
As	4.197946	0.000000	0.000000
I	6.296919	2.098973	2.098973
O	4.197946	2.098973	2.098973
O	6.296919	0.000000	2.098973
O	6.296919	2.098973	0.000000
As	4.197946	0.000000	4.197946
I	6.296919	2.098973	6.296919
O	4.197946	2.098973	6.296919
O	6.296919	0.000000	6.296919
O	6.296919	2.098973	4.197946
As	4.197946	4.197946	0.000000
I	6.296919	6.296919	2.098973
O	4.197946	6.296919	2.098973
O	6.296919	4.197946	2.098973
O	6.296919	6.296919	0.000000
As	4.197946	4.197946	4.197946
I	6.296919	6.296919	6.296919
O	4.197946	6.296919	6.296919
O	6.296919	4.197946	6.296919
O	6.296919	6.296919	4.197946
