40

Hf	0.000000	0.000000	0.000000
O	0.000000	1.973150	1.973150
O	1.973150	0.000000	1.973150
O	1.973150	1.973150	0.000000
Pd	1.973150	1.973150	1.973150
Hf	0.000000	0.000000	3.946301
O	0.000000	1.973150	5.919451
O	1.973150	0.000000	5.919451
O	1.973150	1.973150	3.946301
Pd	1.973150	1.973150	5.919451
Hf	0.000000	3.946301	0.000000
O	0.000000	5.919451	1.973150
O	1.973150	3.946301	1.973150
O	1.973150	5.919451	0.000000
Pd	1.973150	5.919451	1.973150
Hf	0.000000	3.946301	3.946301
O	0.000000	5.919451	5.919451
O	1.973150	3.946301	5.919451
O	1.973150	5.919451	3.946301
Pd	1.973150	5.919451	5.919451
Hf	3.946301	0.000000	0.000000
O	3.946301	1.973150	1.973150
O	5.919451	0.000000	1.973150
O	5.919451	1.973150	0.000000
Pd	5.919451	1.973150	1.973150
Hf	3.946301	0.000000	3.946301
O	3.946301	1.973150	5.919451
O	5.919451	0.000000	5.919451
O	5.919451	1.973150	3.946301
Pd	5.919451	1.973150	5.919451
Hf	3.946301	3.946301	0.000000
O	3.946301	5.919451	1.973150
O	5.919451	3.946301	1.973150
O	5.919451	5.919451	0.000000
Pd	5.919451	5.919451	1.973150
Hf	3.946301	3.946301	3.946301
O	3.946301	5.919451	5.919451
O	5.919451	3.946301	5.919451
O	5.919451	5.919451	3.946301
Pd	5.919451	5.919451	5.919451
