40

Cd	2.032350	2.032350	2.032350
O	2.032350	2.032350	0.000000
O	0.000000	2.032350	2.032350
O	2.032350	0.000000	2.032350
Re	0.000000	0.000000	0.000000
Cd	2.032350	2.032350	6.097045
O	2.032350	2.032350	4.064695
O	0.000000	2.032350	6.097045
O	2.032350	0.000000	6.097045
Re	0.000000	0.000000	4.064695
Cd	2.032350	6.097045	2.032350
O	2.032350	6.097045	0.000000
O	0.000000	6.097045	2.032350
O	2.032350	4.064695	2.032350
Re	0.000000	4.064695	0.000000
Cd	2.032350	6.097045	6.097045
O	2.032350	6.097045	4.064695
O	0.000000	6.097045	6.097045
O	2.032350	4.064695	6.097045
Re	0.000000	4.064695	4.064695
Cd	6.097045	2.032350	2.032350
O	6.097045	2.032350	0.000000
O	4.064695	2.032350	2.032350
O	6.097045	0.000000	2.032350
Re	4.064695	0.000000	0.000000
Cd	6.097045	2.032350	6.097045
O	6.097045	2.032350	4.064695
O	4.064695	2.032350	6.097045
O	6.097045	0.000000	6.097045
Re	4.064695	0.000000	4.064695
Cd	6.097045	6.097045	2.032350
O	6.097045	6.097045	0.000000
O	4.064695	6.097045	2.032350
O	6.097045	4.064695	2.032350
Re	4.064695	4.064695	0.000000
Cd	6.097045	6.097045	6.097045
O	6.097045	6.097045	4.064695
O	4.064695	6.097045	6.097045
O	6.097045	4.064695	6.097045
Re	4.064695	4.064695	4.064695
