40

Ca	2.177602	2.177602	2.177602
Na	0.000000	0.000000	0.000000
O	2.177602	2.177602	0.000000
O	2.177602	0.000000	2.177602
O	0.000000	2.177602	2.177602
Ca	2.177602	2.177602	6.532802
Na	0.000000	0.000000	4.355200
O	2.177602	2.177602	4.355200
O	2.177602	0.000000	6.532802
O	0.000000	2.177602	6.532802
Ca	2.177602	6.532802	2.177602
Na	0.000000	4.355200	0.000000
O	2.177602	6.532802	0.000000
O	2.177602	4.355200	2.177602
O	0.000000	6.532802	2.177602
Ca	2.177602	6.532802	6.532802
Na	0.000000	4.355200	4.355200
O	2.177602	6.532802	4.355200
O	2.177602	4.355200	6.532802
O	0.000000	6.532802	6.532802
Ca	6.532802	2.177602	2.177602
Na	4.355200	0.000000	0.000000
O	6.532802	2.177602	0.000000
O	6.532802	0.000000	2.177602
O	4.355200	2.177602	2.177602
Ca	6.532802	2.177602	6.532802
Na	4.355200	0.000000	4.355200
O	6.532802	2.177602	4.355200
O	6.532802	0.000000	6.532802
O	4.355200	2.177602	6.532802
Ca	6.532802	6.532802	2.177602
Na	4.355200	4.355200	0.000000
O	6.532802	6.532802	0.000000
O	6.532802	4.355200	2.177602
O	4.355200	6.532802	2.177602
Ca	6.532802	6.532802	6.532802
Na	4.355200	4.355200	4.355200
O	6.532802	6.532802	4.355200
O	6.532802	4.355200	6.532802
O	4.355200	6.532802	6.532802
