40

Ca	0.000000	0.000000	0.000000
Na	2.060435	2.060435	2.060435
O	0.000000	2.060435	2.060435
O	2.060435	0.000000	2.060435
O	2.060435	2.060435	0.000000
Ca	0.000000	0.000000	4.120871
Na	2.060435	2.060435	6.181306
O	0.000000	2.060435	6.181306
O	2.060435	0.000000	6.181306
O	2.060435	2.060435	4.120871
Ca	0.000000	4.120871	0.000000
Na	2.060435	6.181306	2.060435
O	0.000000	6.181306	2.060435
O	2.060435	4.120871	2.060435
O	2.060435	6.181306	0.000000
Ca	0.000000	4.120871	4.120871
Na	2.060435	6.181306	6.181306
O	0.000000	6.181306	6.181306
O	2.060435	4.120871	6.181306
O	2.060435	6.181306	4.120871
Ca	4.120871	0.000000	0.000000
Na	6.181306	2.060435	2.060435
O	4.120871	2.060435	2.060435
O	6.181306	0.000000	2.060435
O	6.181306	2.060435	0.000000
Ca	4.120871	0.000000	4.120871
Na	6.181306	2.060435	6.181306
O	4.120871	2.060435	6.181306
O	6.181306	0.000000	6.181306
O	6.181306	2.060435	4.120871
Ca	4.120871	4.120871	0.000000
Na	6.181306	6.181306	2.060435
O	4.120871	6.181306	2.060435
O	6.181306	4.120871	2.060435
O	6.181306	6.181306	0.000000
Ca	4.120871	4.120871	4.120871
Na	6.181306	6.181306	6.181306
O	4.120871	6.181306	6.181306
O	6.181306	4.120871	6.181306
O	6.181306	6.181306	4.120871
