40

Ca	2.167297	2.167297	2.167297
Na	0.000000	0.000000	0.000000
O	2.167297	2.167297	0.000000
O	2.167297	0.000000	2.167297
O	0.000000	2.167297	2.167297
Ca	2.167297	2.167297	6.501892
Na	0.000000	0.000000	4.334595
O	2.167297	2.167297	4.334595
O	2.167297	0.000000	6.501892
O	0.000000	2.167297	6.501892
Ca	2.167297	6.501892	2.167297
Na	0.000000	4.334595	0.000000
O	2.167297	6.501892	0.000000
O	2.167297	4.334595	2.167297
O	0.000000	6.501892	2.167297
Ca	2.167297	6.501892	6.501892
Na	0.000000	4.334595	4.334595
O	2.167297	6.501892	4.334595
O	2.167297	4.334595	6.501892
O	0.000000	6.501892	6.501892
Ca	6.501892	2.167297	2.167297
Na	4.334595	0.000000	0.000000
O	6.501892	2.167297	0.000000
O	6.501892	0.000000	2.167297
O	4.334595	2.167297	2.167297
Ca	6.501892	2.167297	6.501892
Na	4.334595	0.000000	4.334595
O	6.501892	2.167297	4.334595
O	6.501892	0.000000	6.501892
O	4.334595	2.167297	6.501892
Ca	6.501892	6.501892	2.167297
Na	4.334595	4.334595	0.000000
O	6.501892	6.501892	0.000000
O	6.501892	4.334595	2.167297
O	4.334595	6.501892	2.167297
Ca	6.501892	6.501892	6.501892
Na	4.334595	4.334595	4.334595
O	6.501892	6.501892	4.334595
O	6.501892	4.334595	6.501892
O	4.334595	6.501892	6.501892
