40

La	2.256500	2.256500	2.256500
O	2.256500	2.256500	0.000000
O	0.000000	2.256500	2.256500
O	2.256500	0.000000	2.256500
Pm_3	0.000000	0.000000	0.000000
La	2.256500	2.256500	6.769483
O	2.256500	2.256500	4.512983
O	0.000000	2.256500	6.769483
O	2.256500	0.000000	6.769483
Pm_3	0.000000	0.000000	4.512983
La	2.256500	6.769483	2.256500
O	2.256500	6.769483	0.000000
O	0.000000	6.769483	2.256500
O	2.256500	4.512983	2.256500
Pm_3	0.000000	4.512983	0.000000
La	2.256500	6.769483	6.769483
O	2.256500	6.769483	4.512983
O	0.000000	6.769483	6.769483
O	2.256500	4.512983	6.769483
Pm_3	0.000000	4.512983	4.512983
La	6.769483	2.256500	2.256500
O	6.769483	2.256500	0.000000
O	4.512983	2.256500	2.256500
O	6.769483	0.000000	2.256500
Pm_3	4.512983	0.000000	0.000000
La	6.769483	2.256500	6.769483
O	6.769483	2.256500	4.512983
O	4.512983	2.256500	6.769483
O	6.769483	0.000000	6.769483
Pm_3	4.512983	0.000000	4.512983
La	6.769483	6.769483	2.256500
O	6.769483	6.769483	0.000000
O	4.512983	6.769483	2.256500
O	6.769483	4.512983	2.256500
Pm_3	4.512983	4.512983	0.000000
La	6.769483	6.769483	6.769483
O	6.769483	6.769483	4.512983
O	4.512983	6.769483	6.769483
O	6.769483	4.512983	6.769483
Pm_3	4.512983	4.512983	4.512983
