40

O	0.000000	1.978298	1.978298
O	1.978298	0.000000	1.978298
O	1.978298	1.978298	0.000000
Pd	1.978298	1.978298	1.978298
Rh	0.000000	0.000000	0.000000
O	0.000000	1.978298	5.934895
O	1.978298	0.000000	5.934895
O	1.978298	1.978298	3.956597
Pd	1.978298	1.978298	5.934895
Rh	0.000000	0.000000	3.956597
O	0.000000	5.934895	1.978298
O	1.978298	3.956597	1.978298
O	1.978298	5.934895	0.000000
Pd	1.978298	5.934895	1.978298
Rh	0.000000	3.956597	0.000000
O	0.000000	5.934895	5.934895
O	1.978298	3.956597	5.934895
O	1.978298	5.934895	3.956597
Pd	1.978298	5.934895	5.934895
Rh	0.000000	3.956597	3.956597
O	3.956597	1.978298	1.978298
O	5.934895	0.000000	1.978298
O	5.934895	1.978298	0.000000
Pd	5.934895	1.978298	1.978298
Rh	3.956597	0.000000	0.000000
O	3.956597	1.978298	5.934895
O	5.934895	0.000000	5.934895
O	5.934895	1.978298	3.956597
Pd	5.934895	1.978298	5.934895
Rh	3.956597	0.000000	3.956597
O	3.956597	5.934895	1.978298
O	5.934895	3.956597	1.978298
O	5.934895	5.934895	0.000000
Pd	5.934895	5.934895	1.978298
Rh	3.956597	3.956597	0.000000
O	3.956597	5.934895	5.934895
O	5.934895	3.956597	5.934895
O	5.934895	5.934895	3.956597
Pd	5.934895	5.934895	5.934895
Rh	3.956597	3.956597	3.956597
