112

As	0.000000	0.000000	0.000000
As	2.394790	-2.395153	-2.395153
O	3.695540	-1.093582	-1.093582
O	-1.094040	1.093582	-3.696723
O	1.094040	-1.093582	-3.696723
O	1.300750	1.301570	-1.301570
O	5.883630	1.093582	-1.093582
O	1.300750	3.488735	-3.488735
O	3.488840	3.488735	-1.301570
O	3.488840	1.301570	-3.488735
Tb	-1.197395	-1.197571	-3.592724
Tb	1.197395	1.197571	-3.592724
Tb	3.592195	1.197571	-1.197571
Tb	5.986985	-1.197571	-1.197571
As	4.789589	4.790302	0.000000
As	7.184379	2.395149	-2.395153
O	8.485128	3.696720	-1.093582
O	3.695548	5.883884	-3.696723
O	5.883629	3.696720	-3.696723
O	6.090338	6.091872	-1.301570
O	10.673219	5.883884	-1.093582
O	6.090338	8.279037	-3.488735
O	8.278429	8.279037	-1.301570
O	8.278429	6.091872	-3.488735
Tb	3.592194	3.592731	-3.592724
Tb	5.986984	5.987873	-3.592724
Tb	8.381784	5.987873	-1.197571
Tb	10.776574	3.592731	-1.197571
As	-4.789589	0.000000	-4.790302
As	-2.394799	-2.395153	-7.185455
O	-1.094049	-1.093582	-5.883884
O	-5.883629	1.093582	-8.487025
O	-3.695548	-1.093582	-8.487025
O	-3.488839	1.301570	-6.091872
O	1.094041	1.093582	-5.883884
O	-3.488839	3.488735	-8.279037
O	-1.300749	3.488735	-6.091872
O	-1.300749	1.301570	-8.279037
Tb	-5.986984	-1.197571	-8.383026
Tb	-3.592194	1.197571	-8.383026
Tb	-1.197394	1.197571	-5.987873
Tb	1.197396	-1.197571	-5.987873
As	0.000000	4.790302	-4.790302
As	2.394790	2.395149	-7.185455
O	3.695540	3.696720	-5.883884
O	-1.094040	5.883884	-8.487025
O	1.094040	3.696720	-8.487025
O	1.300750	6.091872	-6.091872
O	5.883630	5.883884	-5.883884
O	1.300750	8.279037	-8.279037
O	3.488840	8.279037	-6.091872
O	3.488840	6.091872	-8.279037
Tb	-1.197395	3.592731	-8.383026
Tb	1.197395	5.987873	-8.383026
Tb	3.592195	5.987873	-5.987873
Tb	5.986985	3.592731	-5.987873
As	4.789589	-4.790302	0.000000
As	7.184379	-7.185455	-2.395153
O	8.485128	-5.883884	-1.093582
O	3.695548	-3.696720	-3.696723
O	5.883629	-5.883884	-3.696723
O	6.090338	-3.488732	-1.301570
O	10.673219	-3.696720	-1.093582
O	6.090338	-1.301567	-3.488735
O	8.278429	-1.301567	-1.301570
O	8.278429	-3.488732	-3.488735
Tb	3.592194	-5.987873	-3.592724
Tb	5.986984	-3.592731	-3.592724
Tb	8.381784	-3.592731	-1.197571
Tb	10.776574	-5.987873	-1.197571
As	9.579178	0.000000	0.000000
As	11.973967	-2.395153	-2.395153
O	13.274717	-1.093582	-1.093582
O	8.485137	1.093582	-3.696723
O	10.673218	-1.093582	-3.696723
O	10.879927	1.301570	-1.301570
O	15.462808	1.093582	-1.093582
O	10.879927	3.488735	-3.488735
O	13.068018	3.488735	-1.301570
O	13.068018	1.301570	-3.488735
Tb	8.381783	-1.197571	-3.592724
Tb	10.776572	1.197571	-3.592724
Tb	13.171372	1.197571	-1.197571
Tb	15.566162	-1.197571	-1.197571
As	0.000000	-4.790302	-4.790302
As	2.394790	-7.185455	-7.185455
O	3.695540	-5.883884	-5.883884
O	-1.094040	-3.696720	-8.487025
O	1.094040	-5.883884	-8.487025
O	1.300750	-3.488732	-6.091872
O	5.883630	-3.696720	-5.883884
O	1.300750	-1.301567	-8.279037
O	3.488840	-1.301567	-6.091872
O	3.488840	-3.488732	-8.279037
Tb	-1.197395	-5.987873	-8.383026
Tb	1.197395	-3.592731	-8.383026
Tb	3.592195	-3.592731	-5.987873
Tb	5.986985	-5.987873	-5.987873
As	4.789589	0.000000	-4.790302
As	7.184379	-2.395153	-7.185455
O	8.485128	-1.093582	-5.883884
O	3.695548	1.093582	-8.487025
O	5.883629	-1.093582	-8.487025
O	6.090338	1.301570	-6.091872
O	10.673219	1.093582	-5.883884
O	6.090338	3.488735	-8.279037
O	8.278429	3.488735	-6.091872
O	8.278429	1.301570	-8.279037
Tb	3.592194	-1.197571	-8.383026
Tb	5.986984	1.197571	-8.383026
Tb	8.381784	1.197571	-5.987873
Tb	10.776574	-1.197571	-5.987873
