112

O	3.499697	-0.984130	-0.984130
O	-0.984565	0.984130	-3.501164
O	0.984565	-0.984130	-3.501164
O	1.257566	1.258517	-1.258517
O	5.468827	0.984130	-0.984130
O	1.257566	3.226777	-3.226777
O	3.226696	3.226777	-1.258517
O	3.226696	1.258517	-3.226777
Sm	0.000000	0.000000	0.000000
Sm	2.242131	-2.242647	-2.242647
Ti	-1.121066	-1.121323	-3.363970
Ti	3.363197	1.121323	-1.121323
Ti	5.605328	-1.121323	-1.121323
Ti	1.121066	1.121323	-3.363970
O	7.983960	3.501164	-0.984130
O	3.499697	5.469424	-3.501164
O	5.468827	3.501164	-3.501164
O	5.741829	5.743811	-1.258517
O	9.953090	5.469424	-0.984130
O	5.741829	7.712071	-3.226777
O	7.710959	7.712071	-1.258517
O	7.710959	5.743811	-3.226777
Sm	4.484262	4.485294	0.000000
Sm	6.726394	2.242647	-2.242647
Ti	3.363197	3.363970	-3.363970
Ti	7.847459	5.606617	-1.121323
Ti	10.089590	3.363970	-1.121323
Ti	5.605328	5.606617	-3.363970
O	-0.984565	-0.984130	-5.469424
O	-5.468827	0.984130	-7.986458
O	-3.499697	-0.984130	-7.986458
O	-3.226696	1.258517	-5.743811
O	0.984565	0.984130	-5.469424
O	-3.226696	3.226777	-7.712071
O	-1.257566	3.226777	-5.743811
O	-1.257566	1.258517	-7.712071
Sm	-4.484262	0.000000	-4.485294
Sm	-2.242131	-2.242647	-6.727941
Ti	-5.605328	-1.121323	-7.849264
Ti	-1.121066	1.121323	-5.606617
Ti	1.121066	-1.121323	-5.606617
Ti	-3.363197	1.121323	-7.849264
O	3.499697	3.501164	-5.469424
O	-0.984565	5.469424	-7.986458
O	0.984565	3.501164	-7.986458
O	1.257566	5.743811	-5.743811
O	5.468827	5.469424	-5.469424
O	1.257566	7.712071	-7.712071
O	3.226696	7.712071	-5.743811
O	3.226696	5.743811	-7.712071
Sm	0.000000	4.485294	-4.485294
Sm	2.242131	2.242647	-6.727941
Ti	-1.121066	3.363970	-7.849264
Ti	3.363197	5.606617	-5.606617
Ti	5.605328	3.363970	-5.606617
Ti	1.121066	5.606617	-7.849264
O	7.983960	-5.469424	-0.984130
O	3.499697	-3.501164	-3.501164
O	5.468827	-5.469424	-3.501164
O	5.741829	-3.226777	-1.258517
O	9.953090	-3.501164	-0.984130
O	5.741829	-1.258517	-3.226777
O	7.710959	-1.258517	-1.258517
O	7.710959	-3.226777	-3.226777
Sm	4.484262	-4.485294	0.000000
Sm	6.726394	-6.727941	-2.242647
Ti	3.363197	-5.606617	-3.363970
Ti	7.847459	-3.363970	-1.121323
Ti	10.089590	-5.606617	-1.121323
Ti	5.605328	-3.363970	-3.363970
O	12.468222	-0.984130	-0.984130
O	7.983960	0.984130	-3.501164
O	9.953090	-0.984130	-3.501164
O	10.226091	1.258517	-1.258517
O	14.437352	0.984130	-0.984130
O	10.226091	3.226777	-3.226777
O	12.195221	3.226777	-1.258517
O	12.195221	1.258517	-3.226777
Sm	8.968525	0.000000	0.000000
Sm	11.210656	-2.242647	-2.242647
Ti	7.847459	-1.121323	-3.363970
Ti	12.331722	1.121323	-1.121323
Ti	14.573853	-1.121323	-1.121323
Ti	10.089590	1.121323	-3.363970
O	3.499697	-5.469424	-5.469424
O	-0.984565	-3.501164	-7.986458
O	0.984565	-5.469424	-7.986458
O	1.257566	-3.226777	-5.743811
O	5.468827	-3.501164	-5.469424
O	1.257566	-1.258517	-7.712071
O	3.226696	-1.258517	-5.743811
O	3.226696	-3.226777	-7.712071
Sm	0.000000	-4.485294	-4.485294
Sm	2.242131	-6.727941	-6.727941
Ti	-1.121066	-5.606617	-7.849264
Ti	3.363197	-3.363970	-5.606617
Ti	5.605328	-5.606617	-5.606617
Ti	1.121066	-3.363970	-7.849264
O	7.983960	-0.984130	-5.469424
O	3.499697	0.984130	-7.986458
O	5.468827	-0.984130	-7.986458
O	5.741829	1.258517	-5.743811
O	9.953090	0.984130	-5.469424
O	5.741829	3.226777	-7.712071
O	7.710959	3.226777	-5.743811
O	7.710959	1.258517	-7.712071
Sm	4.484262	0.000000	-4.485294
Sm	6.726394	-2.242647	-6.727941
Ti	3.363197	-1.121323	-7.849264
Ti	7.847459	1.121323	-5.606617
Ti	10.089590	-1.121323	-5.606617
Ti	5.605328	1.121323	-7.849264
