40

As	0.000000	0.000000	0.000000
O	0.000000	1.989740	1.989740
O	1.989740	0.000000	1.989740
O	1.989740	1.989740	0.000000
Pt	1.989740	1.989740	1.989740
As	0.000000	0.000000	3.979480
O	0.000000	1.989740	5.969220
O	1.989740	0.000000	5.969220
O	1.989740	1.989740	3.979480
Pt	1.989740	1.989740	5.969220
As	0.000000	3.979480	0.000000
O	0.000000	5.969220	1.989740
O	1.989740	3.979480	1.989740
O	1.989740	5.969220	0.000000
Pt	1.989740	5.969220	1.989740
As	0.000000	3.979480	3.979480
O	0.000000	5.969220	5.969220
O	1.989740	3.979480	5.969220
O	1.989740	5.969220	3.979480
Pt	1.989740	5.969220	5.969220
As	3.979480	0.000000	0.000000
O	3.979480	1.989740	1.989740
O	5.969220	0.000000	1.989740
O	5.969220	1.989740	0.000000
Pt	5.969220	1.989740	1.989740
As	3.979480	0.000000	3.979480
O	3.979480	1.989740	5.969220
O	5.969220	0.000000	5.969220
O	5.969220	1.989740	3.979480
Pt	5.969220	1.989740	5.969220
As	3.979480	3.979480	0.000000
O	3.979480	5.969220	1.989740
O	5.969220	3.979480	1.989740
O	5.969220	5.969220	0.000000
Pt	5.969220	5.969220	1.989740
As	3.979480	3.979480	3.979480
O	3.979480	5.969220	5.969220
O	5.969220	3.979480	5.969220
O	5.969220	5.969220	3.979480
Pt	5.969220	5.969220	5.969220
