112

Be	0.000000	0.000000	0.000000
Be	2.098690	-2.098646	-2.098646
Hf	-1.049340	-1.049318	-3.147965
Hf	3.148030	1.049318	-1.049318
Hf	1.049340	1.049318	-3.147965
Hf	5.246719	-1.049318	-1.049318
O	0.969408	0.969561	-0.969561
O	1.129282	-1.129085	-3.068207
O	3.068098	-1.129085	-1.129085
O	-1.129282	1.129085	-3.068207
O	3.227972	3.227732	-0.969561
O	3.227972	0.969561	-3.227732
O	0.969408	3.227732	-3.227732
O	5.326662	1.129085	-1.129085
Be	4.197379	4.197288	0.000000
Be	6.296069	2.098642	-2.098646
Hf	3.148039	3.147970	-3.147965
Hf	7.345409	5.246607	-1.049318
Hf	5.246719	5.246607	-3.147965
Hf	9.444098	3.147970	-1.049318
O	5.166787	5.166849	-0.969561
O	5.326661	3.068203	-3.068207
O	7.265477	3.068203	-1.129085
O	3.068097	5.326374	-3.068207
O	7.425351	7.425020	-0.969561
O	7.425351	5.166849	-3.227732
O	5.166787	7.425020	-3.227732
O	9.524041	5.326374	-1.129085
Be	-4.197379	0.000000	-4.197288
Be	-2.098689	-2.098646	-6.295935
Hf	-5.246719	-1.049318	-7.345253
Hf	-1.049349	1.049318	-5.246607
Hf	-3.148039	1.049318	-7.345253
Hf	1.049341	-1.049318	-5.246607
O	-3.227971	0.969561	-5.166850
O	-3.068097	-1.129085	-7.265496
O	-1.129281	-1.129085	-5.326374
O	-5.326661	1.129085	-7.265496
O	-0.969407	3.227732	-5.166850
O	-0.969407	0.969561	-7.425020
O	-3.227971	3.227732	-7.425020
O	1.129283	1.129085	-5.326374
Be	0.000000	4.197288	-4.197288
Be	2.098690	2.098642	-6.295935
Hf	-1.049340	3.147970	-7.345253
Hf	3.148030	5.246607	-5.246607
Hf	1.049340	5.246607	-7.345253
Hf	5.246719	3.147970	-5.246607
O	0.969408	5.166849	-5.166850
O	1.129282	3.068203	-7.265496
O	3.068098	3.068203	-5.326374
O	-1.129282	5.326374	-7.265496
O	3.227972	7.425020	-5.166850
O	3.227972	5.166849	-7.425020
O	0.969408	7.425020	-7.425020
O	5.326662	5.326374	-5.326374
Be	4.197379	-4.197288	0.000000
Be	6.296069	-6.295935	-2.098646
Hf	3.148039	-5.246607	-3.147965
Hf	7.345409	-3.147970	-1.049318
Hf	5.246719	-3.147970	-3.147965
Hf	9.444098	-5.246607	-1.049318
O	5.166787	-3.227727	-0.969561
O	5.326661	-5.326374	-3.068207
O	7.265477	-5.326374	-1.129085
O	3.068097	-3.068203	-3.068207
O	7.425351	-0.969557	-0.969561
O	7.425351	-3.227727	-3.227732
O	5.166787	-0.969557	-3.227732
O	9.524041	-3.068203	-1.129085
Be	8.394758	0.000000	0.000000
Be	10.493448	-2.098646	-2.098646
Hf	7.345418	-1.049318	-3.147965
Hf	11.542788	1.049318	-1.049318
Hf	9.444098	1.049318	-3.147965
Hf	13.641477	-1.049318	-1.049318
O	9.364166	0.969561	-0.969561
O	9.524040	-1.129085	-3.068207
O	11.462856	-1.129085	-1.129085
O	7.265476	1.129085	-3.068207
O	11.622730	3.227732	-0.969561
O	11.622730	0.969561	-3.227732
O	9.364166	3.227732	-3.227732
O	13.721420	1.129085	-1.129085
Be	0.000000	-4.197288	-4.197288
Be	2.098690	-6.295935	-6.295935
Hf	-1.049340	-5.246607	-7.345253
Hf	3.148030	-3.147970	-5.246607
Hf	1.049340	-3.147970	-7.345253
Hf	5.246719	-5.246607	-5.246607
O	0.969408	-3.227727	-5.166850
O	1.129282	-5.326374	-7.265496
O	3.068098	-5.326374	-5.326374
O	-1.129282	-3.068203	-7.265496
O	3.227972	-0.969557	-5.166850
O	3.227972	-3.227727	-7.425020
O	0.969408	-0.969557	-7.425020
O	5.326662	-3.068203	-5.326374
Be	4.197379	0.000000	-4.197288
Be	6.296069	-2.098646	-6.295935
Hf	3.148039	-1.049318	-7.345253
Hf	7.345409	1.049318	-5.246607
Hf	5.246719	1.049318	-7.345253
Hf	9.444098	-1.049318	-5.246607
O	5.166787	0.969561	-5.166850
O	5.326661	-1.129085	-7.265496
O	7.265477	-1.129085	-5.326374
O	3.068097	1.129085	-7.265496
O	7.425351	3.227732	-5.166850
O	7.425351	0.969561	-7.425020
O	5.166787	3.227732	-7.425020
O	9.524041	1.129085	-5.326374
