40

Ho	0.000000	0.000000	0.000000
O	2.237120	0.000000	2.237120
O	0.000000	2.237120	2.237120
O	2.237120	2.237120	0.000000
Pr	2.237120	2.237120	2.237120
Ho	0.000000	0.000000	4.474233
O	2.237120	0.000000	6.711353
O	0.000000	2.237120	6.711353
O	2.237120	2.237120	4.474233
Pr	2.237120	2.237120	6.711353
Ho	0.000000	4.474233	0.000000
O	2.237120	4.474233	2.237120
O	0.000000	6.711353	2.237120
O	2.237120	6.711353	0.000000
Pr	2.237120	6.711353	2.237120
Ho	0.000000	4.474233	4.474233
O	2.237120	4.474233	6.711353
O	0.000000	6.711353	6.711353
O	2.237120	6.711353	4.474233
Pr	2.237120	6.711353	6.711353
Ho	4.474233	0.000000	0.000000
O	6.711353	0.000000	2.237120
O	4.474233	2.237120	2.237120
O	6.711353	2.237120	0.000000
Pr	6.711353	2.237120	2.237120
Ho	4.474233	0.000000	4.474233
O	6.711353	0.000000	6.711353
O	4.474233	2.237120	6.711353
O	6.711353	2.237120	4.474233
Pr	6.711353	2.237120	6.711353
Ho	4.474233	4.474233	0.000000
O	6.711353	4.474233	2.237120
O	4.474233	6.711353	2.237120
O	6.711353	6.711353	0.000000
Pr	6.711353	6.711353	2.237120
Ho	4.474233	4.474233	4.474233
O	6.711353	4.474233	6.711353
O	4.474233	6.711353	6.711353
O	6.711353	6.711353	4.474233
Pr	6.711353	6.711353	6.711353
