40

Ho	0.000000	0.000000	0.000000
Ir	1.971660	1.971660	1.971660
O	0.000000	1.971660	1.971660
O	1.971660	0.000000	1.971660
O	1.971660	1.971660	0.000000
Ho	0.000000	0.000000	3.943306
Ir	1.971660	1.971660	5.914966
O	0.000000	1.971660	5.914966
O	1.971660	0.000000	5.914966
O	1.971660	1.971660	3.943306
Ho	0.000000	3.943306	0.000000
Ir	1.971660	5.914966	1.971660
O	0.000000	5.914966	1.971660
O	1.971660	3.943306	1.971660
O	1.971660	5.914966	0.000000
Ho	0.000000	3.943306	3.943306
Ir	1.971660	5.914966	5.914966
O	0.000000	5.914966	5.914966
O	1.971660	3.943306	5.914966
O	1.971660	5.914966	3.943306
Ho	3.943306	0.000000	0.000000
Ir	5.914966	1.971660	1.971660
O	3.943306	1.971660	1.971660
O	5.914966	0.000000	1.971660
O	5.914966	1.971660	0.000000
Ho	3.943306	0.000000	3.943306
Ir	5.914966	1.971660	5.914966
O	3.943306	1.971660	5.914966
O	5.914966	0.000000	5.914966
O	5.914966	1.971660	3.943306
Ho	3.943306	3.943306	0.000000
Ir	5.914966	5.914966	1.971660
O	3.943306	5.914966	1.971660
O	5.914966	3.943306	1.971660
O	5.914966	5.914966	0.000000
Ho	3.943306	3.943306	3.943306
Ir	5.914966	5.914966	5.914966
O	3.943306	5.914966	5.914966
O	5.914966	3.943306	5.914966
O	5.914966	5.914966	3.943306
