40

O	0.000000	1.984131	1.984131
O	1.984131	0.000000	1.984131
O	1.984131	1.984131	0.000000
Os	0.000000	0.000000	0.000000
W	1.984131	1.984131	1.984131
O	0.000000	1.984131	5.952394
O	1.984131	0.000000	5.952394
O	1.984131	1.984131	3.968262
Os	0.000000	0.000000	3.968262
W	1.984131	1.984131	5.952394
O	0.000000	5.952394	1.984131
O	1.984131	3.968262	1.984131
O	1.984131	5.952394	0.000000
Os	0.000000	3.968262	0.000000
W	1.984131	5.952394	1.984131
O	0.000000	5.952394	5.952394
O	1.984131	3.968262	5.952394
O	1.984131	5.952394	3.968262
Os	0.000000	3.968262	3.968262
W	1.984131	5.952394	5.952394
O	3.968262	1.984131	1.984131
O	5.952394	0.000000	1.984131
O	5.952394	1.984131	0.000000
Os	3.968262	0.000000	0.000000
W	5.952394	1.984131	1.984131
O	3.968262	1.984131	5.952394
O	5.952394	0.000000	5.952394
O	5.952394	1.984131	3.968262
Os	3.968262	0.000000	3.968262
W	5.952394	1.984131	5.952394
O	3.968262	5.952394	1.984131
O	5.952394	3.968262	1.984131
O	5.952394	5.952394	0.000000
Os	3.968262	3.968262	0.000000
W	5.952394	5.952394	1.984131
O	3.968262	5.952394	5.952394
O	5.952394	3.968262	5.952394
O	5.952394	5.952394	3.968262
Os	3.968262	3.968262	3.968262
W	5.952394	5.952394	5.952394
