40

Be	0.000000	0.000000	0.000000
Fe	1.859935	1.859935	1.859935
O	0.000000	1.859935	1.859935
O	1.859935	0.000000	1.859935
O	1.859935	1.859935	0.000000
Be	0.000000	0.000000	3.719870
Fe	1.859935	1.859935	5.579805
O	0.000000	1.859935	5.579805
O	1.859935	0.000000	5.579805
O	1.859935	1.859935	3.719870
Be	0.000000	3.719870	0.000000
Fe	1.859935	5.579805	1.859935
O	0.000000	5.579805	1.859935
O	1.859935	3.719870	1.859935
O	1.859935	5.579805	0.000000
Be	0.000000	3.719870	3.719870
Fe	1.859935	5.579805	5.579805
O	0.000000	5.579805	5.579805
O	1.859935	3.719870	5.579805
O	1.859935	5.579805	3.719870
Be	3.719870	0.000000	0.000000
Fe	5.579805	1.859935	1.859935
O	3.719870	1.859935	1.859935
O	5.579805	0.000000	1.859935
O	5.579805	1.859935	0.000000
Be	3.719870	0.000000	3.719870
Fe	5.579805	1.859935	5.579805
O	3.719870	1.859935	5.579805
O	5.579805	0.000000	5.579805
O	5.579805	1.859935	3.719870
Be	3.719870	3.719870	0.000000
Fe	5.579805	5.579805	1.859935
O	3.719870	5.579805	1.859935
O	5.579805	3.719870	1.859935
O	5.579805	5.579805	0.000000
Be	3.719870	3.719870	3.719870
Fe	5.579805	5.579805	5.579805
O	3.719870	5.579805	5.579805
O	5.579805	3.719870	5.579805
O	5.579805	5.579805	3.719870
