112

Er	0.000000	0.000000	0.000000
Er	2.240362	-2.241740	-2.241740
O	3.493036	-0.987329	-0.987329
O	-0.987687	0.987329	-3.496151
O	0.987687	-0.987329	-3.496151
O	1.252675	1.254411	-1.254411
O	5.468410	0.987329	-0.987329
O	1.252675	3.229069	-3.229069
O	3.228049	3.229069	-1.254411
O	3.228049	1.254411	-3.229069
Os	-1.120181	-1.120870	-3.362610
Os	3.360542	1.120870	-1.120870
Os	5.600904	-1.120870	-1.120870
Os	1.120181	1.120870	-3.362610
Er	4.480723	4.483480	0.000000
Er	6.721085	2.241740	-2.241740
O	7.973759	3.496151	-0.987329
O	3.493036	5.470809	-3.496151
O	5.468410	3.496151	-3.496151
O	5.733398	5.737891	-1.254411
O	9.949133	5.470809	-0.987329
O	5.733398	7.712549	-3.229069
O	7.708772	7.712549	-1.254411
O	7.708772	5.737891	-3.229069
Os	3.360542	3.362610	-3.362610
Os	7.841265	5.604350	-1.120870
Os	10.081627	3.362610	-1.120870
Os	5.600904	5.604350	-3.362610
Er	-4.480723	0.000000	-4.483480
Er	-2.240362	-2.241740	-6.725220
O	-0.987687	-0.987329	-5.470809
O	-5.468410	0.987329	-7.979631
O	-3.493036	-0.987329	-7.979631
O	-3.228049	1.254411	-5.737891
O	0.987687	0.987329	-5.470809
O	-3.228049	3.229069	-7.712549
O	-1.252675	3.229069	-5.737891
O	-1.252675	1.254411	-7.712549
Os	-5.600904	-1.120870	-7.846090
Os	-1.120181	1.120870	-5.604350
Os	1.120181	-1.120870	-5.604350
Os	-3.360542	1.120870	-7.846090
Er	0.000000	4.483480	-4.483480
Er	2.240362	2.241740	-6.725220
O	3.493036	3.496151	-5.470809
O	-0.987687	5.470809	-7.979631
O	0.987687	3.496151	-7.979631
O	1.252675	5.737891	-5.737891
O	5.468410	5.470809	-5.470809
O	1.252675	7.712549	-7.712549
O	3.228049	7.712549	-5.737891
O	3.228049	5.737891	-7.712549
Os	-1.120181	3.362610	-7.846090
Os	3.360542	5.604350	-5.604350
Os	5.600904	3.362610	-5.604350
Os	1.120181	5.604350	-7.846090
Er	4.480723	-4.483480	0.000000
Er	6.721085	-6.725220	-2.241740
O	7.973759	-5.470809	-0.987329
O	3.493036	-3.496151	-3.496151
O	5.468410	-5.470809	-3.496151
O	5.733398	-3.229069	-1.254411
O	9.949133	-3.496151	-0.987329
O	5.733398	-1.254411	-3.229069
O	7.708772	-1.254411	-1.254411
O	7.708772	-3.229069	-3.229069
Os	3.360542	-5.604350	-3.362610
Os	7.841265	-3.362610	-1.120870
Os	10.081627	-5.604350	-1.120870
Os	5.600904	-3.362610	-3.362610
Er	8.961446	0.000000	0.000000
Er	11.201808	-2.241740	-2.241740
O	12.454482	-0.987329	-0.987329
O	7.973759	0.987329	-3.496151
O	9.949133	-0.987329	-3.496151
O	10.214121	1.254411	-1.254411
O	14.429856	0.987329	-0.987329
O	10.214121	3.229069	-3.229069
O	12.189495	3.229069	-1.254411
O	12.189495	1.254411	-3.229069
Os	7.841265	-1.120870	-3.362610
Os	12.321989	1.120870	-1.120870
Os	14.562350	-1.120870	-1.120870
Os	10.081627	1.120870	-3.362610
Er	0.000000	-4.483480	-4.483480
Er	2.240362	-6.725220	-6.725220
O	3.493036	-5.470809	-5.470809
O	-0.987687	-3.496151	-7.979631
O	0.987687	-5.470809	-7.979631
O	1.252675	-3.229069	-5.737891
O	5.468410	-3.496151	-5.470809
O	1.252675	-1.254411	-7.712549
O	3.228049	-1.254411	-5.737891
O	3.228049	-3.229069	-7.712549
Os	-1.120181	-5.604350	-7.846090
Os	3.360542	-3.362610	-5.604350
Os	5.600904	-5.604350	-5.604350
Os	1.120181	-3.362610	-7.846090
Er	4.480723	0.000000	-4.483480
Er	6.721085	-2.241740	-6.725220
O	7.973759	-0.987329	-5.470809
O	3.493036	0.987329	-7.979631
O	5.468410	-0.987329	-7.979631
O	5.733398	1.254411	-5.737891
O	9.949133	0.987329	-5.470809
O	5.733398	3.229069	-7.712549
O	7.708772	3.229069	-5.737891
O	7.708772	1.254411	-7.712549
Os	3.360542	-1.120870	-7.846090
Os	7.841265	1.120870	-5.604350
Os	10.081627	-1.120870	-5.604350
Os	5.600904	1.120870	-7.846090
