112

Li	0.864009	0.610947	1.496508
Li	6.048066	4.276628	10.475557
O	1.815178	1.283524	5.835069
O	5.096897	3.604051	8.828085
O	5.096897	3.604051	6.136996
O	2.592028	3.480790	4.489524
O	1.815178	1.283524	3.143980
O	2.766346	3.604051	7.482541
O	4.320047	1.406785	7.482541
O	4.145729	1.283524	4.489524
Ti	3.456037	2.443788	5.986032
Ti	2.592028	0.000000	4.489524
Ti	0.864009	2.443788	4.489524
Ti	3.456037	2.443788	2.993016
Li	0.864009	0.610947	7.482541
Li	6.048066	4.276628	16.461589
O	1.815178	1.283524	11.821101
O	5.096897	3.604051	14.814118
O	5.096897	3.604051	12.123028
O	2.592028	3.480790	10.475557
O	1.815178	1.283524	9.130012
O	2.766346	3.604051	13.468573
O	4.320047	1.406785	13.468573
O	4.145729	1.283524	10.475557
Ti	3.456037	2.443788	11.972065
Ti	2.592028	0.000000	10.475557
Ti	0.864009	2.443788	10.475557
Ti	3.456037	2.443788	8.979049
Li	2.592028	5.498522	4.489524
Li	7.776084	9.164203	13.468573
O	3.543196	6.171099	8.828085
O	6.824916	8.491626	11.821101
O	6.824916	8.491626	9.130012
O	4.320047	8.368365	7.482541
O	3.543196	6.171099	6.136996
O	4.494364	8.491626	10.475557
O	6.048066	6.294361	10.475557
O	5.873748	6.171099	7.482541
Ti	5.184056	7.331363	8.979049
Ti	4.320047	4.887575	7.482541
Ti	2.592028	7.331363	7.482541
Ti	5.184056	7.331363	5.986032
Li	2.592028	5.498522	10.475557
Li	7.776084	9.164203	19.454605
O	3.543196	6.171099	14.814118
O	6.824916	8.491626	17.807134
O	6.824916	8.491626	15.116045
O	4.320047	8.368365	13.468573
O	3.543196	6.171099	12.123028
O	4.494364	8.491626	16.461589
O	6.048066	6.294361	16.461589
O	5.873748	6.171099	13.468573
Ti	5.184056	7.331363	14.965081
Ti	4.320047	4.887575	13.468573
Ti	2.592028	7.331363	13.468573
Ti	5.184056	7.331363	11.972065
Li	6.048066	0.610947	4.489524
Li	11.232122	4.276628	13.468573
O	6.999234	1.283524	8.828085
O	10.280954	3.604051	11.821101
O	10.280954	3.604051	9.130012
O	7.776084	3.480790	7.482541
O	6.999234	1.283524	6.136996
O	7.950402	3.604051	10.475557
O	9.504103	1.406785	10.475557
O	9.329785	1.283524	7.482541
Ti	8.640094	2.443788	8.979049
Ti	7.776084	0.000000	7.482541
Ti	6.048066	2.443788	7.482541
Ti	8.640094	2.443788	5.986032
Li	6.048066	0.610947	10.475557
Li	11.232122	4.276628	19.454605
O	6.999234	1.283524	14.814118
O	10.280954	3.604051	17.807134
O	10.280954	3.604051	15.116045
O	7.776084	3.480790	13.468573
O	6.999234	1.283524	12.123028
O	7.950402	3.604051	16.461589
O	9.504103	1.406785	16.461589
O	9.329785	1.283524	13.468573
Ti	8.640094	2.443788	14.965081
Ti	7.776084	0.000000	13.468573
Ti	6.048066	2.443788	13.468573
Ti	8.640094	2.443788	11.972065
Li	7.776084	5.498522	7.482541
Li	12.960140	9.164203	16.461589
O	8.727252	6.171099	11.821101
O	12.008972	8.491626	14.814118
O	12.008972	8.491626	12.123028
O	9.504103	8.368365	10.475557
O	8.727252	6.171099	9.130012
O	9.678421	8.491626	13.468573
O	11.232122	6.294361	13.468573
O	11.057804	6.171099	10.475557
Ti	10.368112	7.331363	11.972065
Ti	9.504103	4.887575	10.475557
Ti	7.776084	7.331363	10.475557
Ti	10.368112	7.331363	8.979049
Li	7.776084	5.498522	13.468573
Li	12.960140	9.164203	22.447622
O	8.727252	6.171099	17.807134
O	12.008972	8.491626	20.800150
O	12.008972	8.491626	18.109061
O	9.504103	8.368365	16.461589
O	8.727252	6.171099	15.116045
O	9.678421	8.491626	19.454606
O	11.232122	6.294361	19.454606
O	11.057804	6.171099	16.461589
Ti	10.368112	7.331363	17.958097
Ti	9.504103	4.887575	16.461589
Ti	7.776084	7.331363	16.461589
Ti	10.368112	7.331363	14.965081
