40

Ba	2.016523	2.016523	2.016523
Fe	0.000000	0.000000	0.000000
O	2.016523	0.000000	0.000000
O	0.000000	2.016523	0.000000
O	0.000000	0.000000	2.016523
Ba	2.016523	2.016523	6.049568
Fe	0.000000	0.000000	4.033045
O	2.016523	0.000000	4.033045
O	0.000000	2.016523	4.033045
O	0.000000	0.000000	6.049568
Ba	2.016523	6.049568	2.016523
Fe	0.000000	4.033045	0.000000
O	2.016523	4.033045	0.000000
O	0.000000	6.049568	0.000000
O	0.000000	4.033045	2.016523
Ba	2.016523	6.049568	6.049568
Fe	0.000000	4.033045	4.033045
O	2.016523	4.033045	4.033045
O	0.000000	6.049568	4.033045
O	0.000000	4.033045	6.049568
Ba	6.049568	2.016523	2.016523
Fe	4.033045	0.000000	0.000000
O	6.049568	0.000000	0.000000
O	4.033045	2.016523	0.000000
O	4.033045	0.000000	2.016523
Ba	6.049568	2.016523	6.049568
Fe	4.033045	0.000000	4.033045
O	6.049568	0.000000	4.033045
O	4.033045	2.016523	4.033045
O	4.033045	0.000000	6.049568
Ba	6.049568	6.049568	2.016523
Fe	4.033045	4.033045	0.000000
O	6.049568	4.033045	0.000000
O	4.033045	6.049568	0.000000
O	4.033045	4.033045	2.016523
Ba	6.049568	6.049568	6.049568
Fe	4.033045	4.033045	4.033045
O	6.049568	4.033045	4.033045
O	4.033045	6.049568	4.033045
O	4.033045	4.033045	6.049568
