40

Ba	0.000000	0.000000	0.000000
Fe	1.998994	1.981625	1.964556
O	1.989984	1.972693	-0.016411
O	1.989984	0.000656	1.972761
O	0.018021	1.989902	1.972761
Ba	0.018021	0.017865	3.961933
Fe	2.017016	1.999491	5.926489
O	2.008005	1.990558	3.945522
O	2.008005	0.018521	5.934694
O	0.036043	2.007767	5.934694
Ba	0.018021	3.961939	-0.016411
Fe	2.017016	5.943564	1.948145
O	2.008005	5.934632	-0.032821
O	2.008005	3.962595	1.956351
O	0.036043	5.951841	1.956351
Ba	0.036043	3.979804	3.945522
Fe	2.035037	5.961430	5.910078
O	2.026026	5.952497	3.929112
O	2.026026	3.980460	5.918283
O	0.054064	5.969706	5.918283
Ba	3.961946	-0.016553	-0.016411
Fe	5.960940	1.965072	1.948145
O	5.951929	1.956140	-0.032821
O	5.951929	-0.015897	1.956351
O	3.979967	1.973349	1.956351
Ba	3.979967	0.001312	3.945522
Fe	5.978961	1.982937	5.910078
O	5.969951	1.974005	3.929112
O	5.969951	0.001968	5.918283
O	3.997989	1.991214	5.918283
Ba	3.979967	3.945386	-0.032821
Fe	5.978961	5.927011	1.931735
O	5.969951	5.918079	-0.049232
O	5.969951	3.946042	1.939940
O	3.997989	5.935288	1.939940
Ba	3.997989	3.963251	3.929112
Fe	5.996983	5.944876	5.893668
O	5.987972	5.935944	3.912701
O	5.987972	3.963907	5.901873
O	4.016010	5.953153	5.901873
