112

Ag	0.000000	0.000000	0.000000
Ag	2.348165	-2.349109	-2.349109
Ca	-1.174082	-1.174555	-3.523674
Ca	3.522247	1.174555	-1.174555
Ca	5.870411	-1.174555	-1.174555
Ca	1.174082	1.174555	-3.523674
O	3.560044	-1.135853	-1.135853
O	-1.136286	1.135853	-3.562375
O	1.136286	-1.135853	-3.562375
O	1.211879	1.213256	-1.213256
O	5.832625	1.135853	-1.135853
O	1.211879	3.484962	-3.484962
O	3.484460	3.484962	-1.213256
O	3.484460	1.213256	-3.484962
Ag	4.696332	4.698226	0.000000
Ag	7.044497	2.349117	-2.349109
Ca	3.522250	3.523671	-3.523674
Ca	8.218579	5.872781	-1.174555
Ca	10.566744	3.523671	-1.174555
Ca	5.870415	5.872781	-3.523674
O	8.256376	3.562373	-1.135853
O	3.560047	5.834079	-3.562375
O	5.832618	3.562373	-3.562375
O	5.908211	5.911482	-1.213256
O	10.528957	5.834079	-1.135853
O	5.908211	8.183188	-3.484962
O	8.180793	8.183188	-1.213256
O	8.180793	5.911482	-3.484962
Ag	-4.696332	0.000000	-4.698226
Ag	-2.348168	-2.349109	-7.047335
Ca	-5.870415	-1.174555	-8.221900
Ca	-1.174086	1.174555	-5.872781
Ca	1.174079	-1.174555	-5.872781
Ca	-3.522250	1.174555	-8.221900
O	-1.136289	-1.135853	-5.834079
O	-5.832618	1.135853	-8.260601
O	-3.560047	-1.135853	-8.260601
O	-3.484454	1.213256	-5.911482
O	1.136292	1.135853	-5.834079
O	-3.484454	3.484962	-8.183188
O	-1.211872	3.484962	-5.911482
O	-1.211872	1.213256	-8.183188
Ag	0.000000	4.698226	-4.698226
Ag	2.348165	2.349117	-7.047335
Ca	-1.174082	3.523671	-8.221900
Ca	3.522247	5.872781	-5.872781
Ca	5.870411	3.523671	-5.872781
Ca	1.174082	5.872781	-8.221900
O	3.560044	3.562373	-5.834079
O	-1.136286	5.834079	-8.260601
O	1.136286	3.562373	-8.260601
O	1.211879	5.911482	-5.911482
O	5.832625	5.834079	-5.834079
O	1.211879	8.183188	-8.183188
O	3.484460	8.183188	-5.911482
O	3.484460	5.911482	-8.183188
Ag	4.696332	-4.698226	0.000000
Ag	7.044497	-7.047335	-2.349109
Ca	3.522250	-5.872781	-3.523674
Ca	8.218579	-3.523671	-1.174555
Ca	10.566744	-5.872781	-1.174555
Ca	5.870415	-3.523671	-3.523674
O	8.256376	-5.834079	-1.135853
O	3.560047	-3.562373	-3.562375
O	5.832618	-5.834079	-3.562375
O	5.908211	-3.484970	-1.213256
O	10.528957	-3.562373	-1.135853
O	5.908211	-1.213264	-3.484962
O	8.180793	-1.213264	-1.213256
O	8.180793	-3.484970	-3.484962
Ag	9.392665	0.000000	0.000000
Ag	11.740830	-2.349109	-2.349109
Ca	8.218583	-1.174555	-3.523674
Ca	12.914912	1.174555	-1.174555
Ca	15.263076	-1.174555	-1.174555
Ca	10.566747	1.174555	-3.523674
O	12.952708	-1.135853	-1.135853
O	8.256379	1.135853	-3.562375
O	10.528951	-1.135853	-3.562375
O	10.604544	1.213256	-1.213256
O	15.225290	1.135853	-1.135853
O	10.604544	3.484962	-3.484962
O	12.877125	3.484962	-1.213256
O	12.877125	1.213256	-3.484962
Ag	0.000000	-4.698226	-4.698226
Ag	2.348165	-7.047335	-7.047335
Ca	-1.174082	-5.872781	-8.221900
Ca	3.522247	-3.523671	-5.872781
Ca	5.870411	-5.872781	-5.872781
Ca	1.174082	-3.523671	-8.221900
O	3.560044	-5.834079	-5.834079
O	-1.136286	-3.562373	-8.260601
O	1.136286	-5.834079	-8.260601
O	1.211879	-3.484970	-5.911482
O	5.832625	-3.562373	-5.834079
O	1.211879	-1.213264	-8.183188
O	3.484460	-1.213264	-5.911482
O	3.484460	-3.484970	-8.183188
Ag	4.696332	0.000000	-4.698226
Ag	7.044497	-2.349109	-7.047335
Ca	3.522250	-1.174555	-8.221900
Ca	8.218579	1.174555	-5.872781
Ca	10.566744	-1.174555	-5.872781
Ca	5.870415	1.174555	-8.221900
O	8.256376	-1.135853	-5.834079
O	3.560047	1.135853	-8.260601
O	5.832618	-1.135853	-8.260601
O	5.908211	1.213256	-5.911482
O	10.528957	1.135853	-5.834079
O	5.908211	3.484962	-8.183188
O	8.180793	3.484962	-5.911482
O	8.180793	1.213256	-8.183188
