40

B	0.000000	0.000000	0.000000
F	1.869206	1.869206	1.869206
O	0.000000	1.869206	1.869206
O	1.869206	0.000000	1.869206
O	1.869206	1.869206	0.000000
B	0.000000	0.000000	3.738412
F	1.869206	1.869206	5.607617
O	0.000000	1.869206	5.607617
O	1.869206	0.000000	5.607617
O	1.869206	1.869206	3.738412
B	0.000000	3.738412	0.000000
F	1.869206	5.607617	1.869206
O	0.000000	5.607617	1.869206
O	1.869206	3.738412	1.869206
O	1.869206	5.607617	0.000000
B	0.000000	3.738412	3.738412
F	1.869206	5.607617	5.607617
O	0.000000	5.607617	5.607617
O	1.869206	3.738412	5.607617
O	1.869206	5.607617	3.738412
B	3.738412	0.000000	0.000000
F	5.607617	1.869206	1.869206
O	3.738412	1.869206	1.869206
O	5.607617	0.000000	1.869206
O	5.607617	1.869206	0.000000
B	3.738412	0.000000	3.738412
F	5.607617	1.869206	5.607617
O	3.738412	1.869206	5.607617
O	5.607617	0.000000	5.607617
O	5.607617	1.869206	3.738412
B	3.738412	3.738412	0.000000
F	5.607617	5.607617	1.869206
O	3.738412	5.607617	1.869206
O	5.607617	3.738412	1.869206
O	5.607617	5.607617	0.000000
B	3.738412	3.738412	3.738412
F	5.607617	5.607617	5.607617
O	3.738412	5.607617	5.607617
O	5.607617	3.738412	5.607617
O	5.607617	5.607617	3.738412
