40

Al	1.836830	1.836830	1.836830
Ho_3	0.000000	0.000000	0.000000
O	1.836830	1.836830	0.000000
O	0.000000	1.836830	1.836830
O	1.836830	0.000000	1.836830
Al	1.836830	1.836830	5.510497
Ho_3	0.000000	0.000000	3.673667
O	1.836830	1.836830	3.673667
O	0.000000	1.836830	5.510497
O	1.836830	0.000000	5.510497
Al	1.836830	5.510497	1.836830
Ho_3	0.000000	3.673667	0.000000
O	1.836830	5.510497	0.000000
O	0.000000	5.510497	1.836830
O	1.836830	3.673667	1.836830
Al	1.836830	5.510497	5.510497
Ho_3	0.000000	3.673667	3.673667
O	1.836830	5.510497	3.673667
O	0.000000	5.510497	5.510497
O	1.836830	3.673667	5.510497
Al	5.510497	1.836830	1.836830
Ho_3	3.673667	0.000000	0.000000
O	5.510497	1.836830	0.000000
O	3.673667	1.836830	1.836830
O	5.510497	0.000000	1.836830
Al	5.510497	1.836830	5.510497
Ho_3	3.673667	0.000000	3.673667
O	5.510497	1.836830	3.673667
O	3.673667	1.836830	5.510497
O	5.510497	0.000000	5.510497
Al	5.510497	5.510497	1.836830
Ho_3	3.673667	3.673667	0.000000
O	5.510497	5.510497	0.000000
O	3.673667	5.510497	1.836830
O	5.510497	3.673667	1.836830
Al	5.510497	5.510497	5.510497
Ho_3	3.673667	3.673667	3.673667
O	5.510497	5.510497	3.673667
O	3.673667	5.510497	5.510497
O	5.510497	3.673667	5.510497
