112

O	3.723553	-1.013145	-1.013145
O	-1.013441	1.013145	-3.725205
O	1.013441	-1.013145	-3.725205
O	1.355051	1.356025	-1.356025
O	5.750444	1.013145	-1.013145
O	1.355051	3.382325	-3.382325
O	3.381942	3.382325	-1.356025
O	3.381942	1.356025	-3.382325
Sr	0.000000	0.000000	0.000000
Sr	2.368502	-2.369170	-2.369170
Zr	-1.184251	-1.184585	-3.553765
Zr	3.552743	1.184585	-1.184585
Zr	5.921244	-1.184585	-1.184585
Zr	1.184251	1.184585	-3.553765
O	8.460548	3.725203	-1.013145
O	3.723554	5.751493	-3.725205
O	5.750436	3.725203	-3.725205
O	6.092046	6.094373	-1.356025
O	10.487439	5.751493	-1.013145
O	6.092046	8.120673	-3.382325
O	8.118938	8.120673	-1.356025
O	8.118938	6.094373	-3.382325
Sr	4.736995	4.738348	0.000000
Sr	7.105497	2.369178	-2.369170
Zr	3.552744	3.553763	-3.553765
Zr	8.289738	5.922933	-1.184585
Zr	10.658239	3.553763	-1.184585
Zr	5.921246	5.922933	-3.553765
O	-1.013442	-1.013145	-5.751493
O	-5.750436	1.013145	-8.463553
O	-3.723554	-1.013145	-8.463553
O	-3.381944	1.356025	-6.094373
O	1.013449	1.013145	-5.751493
O	-3.381944	3.382325	-8.120673
O	-1.355053	3.382325	-6.094373
O	-1.355053	1.356025	-8.120673
Sr	-4.736995	0.000000	-4.738348
Sr	-2.368493	-2.369170	-7.107518
Zr	-5.921246	-1.184585	-8.292113
Zr	-1.184252	1.184585	-5.922933
Zr	1.184249	-1.184585	-5.922933
Zr	-3.552744	1.184585	-8.292113
O	3.723553	3.725203	-5.751493
O	-1.013441	5.751493	-8.463553
O	1.013441	3.725203	-8.463553
O	1.355051	6.094373	-6.094373
O	5.750444	5.751493	-5.751493
O	1.355051	8.120673	-8.120673
O	3.381942	8.120673	-6.094373
O	3.381942	6.094373	-8.120673
Sr	0.000000	4.738348	-4.738348
Sr	2.368502	2.369178	-7.107518
Zr	-1.184251	3.553763	-8.292113
Zr	3.552743	5.922933	-5.922933
Zr	5.921244	3.553763	-5.922933
Zr	1.184251	5.922933	-8.292113
O	8.460548	-5.751493	-1.013145
O	3.723554	-3.725203	-3.725205
O	5.750436	-5.751493	-3.725205
O	6.092046	-3.382323	-1.356025
O	10.487439	-3.725203	-1.013145
O	6.092046	-1.356023	-3.382325
O	8.118938	-1.356023	-1.356025
O	8.118938	-3.382323	-3.382325
Sr	4.736995	-4.738348	0.000000
Sr	7.105497	-7.107518	-2.369170
Zr	3.552744	-5.922933	-3.553765
Zr	8.289738	-3.553763	-1.184585
Zr	10.658239	-5.922933	-1.184585
Zr	5.921246	-3.553763	-3.553765
O	13.197543	-1.013145	-1.013145
O	8.460549	1.013145	-3.725205
O	10.487431	-1.013145	-3.725205
O	10.829041	1.356025	-1.356025
O	15.224434	1.013145	-1.013145
O	10.829041	3.382325	-3.382325
O	12.855933	3.382325	-1.356025
O	12.855933	1.356025	-3.382325
Sr	9.473990	0.000000	0.000000
Sr	11.842492	-2.369170	-2.369170
Zr	8.289739	-1.184585	-3.553765
Zr	13.026733	1.184585	-1.184585
Zr	15.395235	-1.184585	-1.184585
Zr	10.658241	1.184585	-3.553765
O	3.723553	-5.751493	-5.751493
O	-1.013441	-3.725203	-8.463553
O	1.013441	-5.751493	-8.463553
O	1.355051	-3.382323	-6.094373
O	5.750444	-3.725203	-5.751493
O	1.355051	-1.356023	-8.120673
O	3.381942	-1.356023	-6.094373
O	3.381942	-3.382323	-8.120673
Sr	0.000000	-4.738348	-4.738348
Sr	2.368502	-7.107518	-7.107518
Zr	-1.184251	-5.922933	-8.292113
Zr	3.552743	-3.553763	-5.922933
Zr	5.921244	-5.922933	-5.922933
Zr	1.184251	-3.553763	-8.292113
O	8.460548	-1.013145	-5.751493
O	3.723554	1.013145	-8.463553
O	5.750436	-1.013145	-8.463553
O	6.092046	1.356025	-6.094373
O	10.487439	1.013145	-5.751493
O	6.092046	3.382325	-8.120673
O	8.118938	3.382325	-6.094373
O	8.118938	1.356025	-8.120673
Sr	4.736995	0.000000	-4.738348
Sr	7.105497	-2.369170	-7.107518
Zr	3.552744	-1.184585	-8.292113
Zr	8.289738	1.184585	-5.922933
Zr	10.658239	-1.184585	-5.922933
Zr	5.921246	1.184585	-8.292113
