40

Na	0.000000	0.000000	0.000000
O	1.923120	1.923120	0.000000
O	0.000000	1.923120	1.923120
O	1.923120	0.000000	1.923120
Tc	1.923120	1.923120	1.923120
Na	0.000000	0.000000	3.846230
O	1.923120	1.923120	3.846230
O	0.000000	1.923120	5.769350
O	1.923120	0.000000	5.769350
Tc	1.923120	1.923120	5.769350
Na	0.000000	3.846230	0.000000
O	1.923120	5.769350	0.000000
O	0.000000	5.769350	1.923120
O	1.923120	3.846230	1.923120
Tc	1.923120	5.769350	1.923120
Na	0.000000	3.846230	3.846230
O	1.923120	5.769350	3.846230
O	0.000000	5.769350	5.769350
O	1.923120	3.846230	5.769350
Tc	1.923120	5.769350	5.769350
Na	3.846230	0.000000	0.000000
O	5.769350	1.923120	0.000000
O	3.846230	1.923120	1.923120
O	5.769350	0.000000	1.923120
Tc	5.769350	1.923120	1.923120
Na	3.846230	0.000000	3.846230
O	5.769350	1.923120	3.846230
O	3.846230	1.923120	5.769350
O	5.769350	0.000000	5.769350
Tc	5.769350	1.923120	5.769350
Na	3.846230	3.846230	0.000000
O	5.769350	5.769350	0.000000
O	3.846230	5.769350	1.923120
O	5.769350	3.846230	1.923120
Tc	5.769350	5.769350	1.923120
Na	3.846230	3.846230	3.846230
O	5.769350	5.769350	3.846230
O	3.846230	5.769350	5.769350
O	5.769350	3.846230	5.769350
Tc	5.769350	5.769350	5.769350
