40

Co	1.892260	1.892260	1.892260
La	0.000000	0.000000	0.000000
O	1.892260	1.892260	0.000000
O	0.000000	1.892260	1.892260
O	1.892260	0.000000	1.892260
Co	1.892260	1.892260	5.676780
La	0.000000	0.000000	3.784520
O	1.892260	1.892260	3.784520
O	0.000000	1.892260	5.676780
O	1.892260	0.000000	5.676780
Co	1.892260	5.676780	1.892260
La	0.000000	3.784520	0.000000
O	1.892260	5.676780	0.000000
O	0.000000	5.676780	1.892260
O	1.892260	3.784520	1.892260
Co	1.892260	5.676780	5.676780
La	0.000000	3.784520	3.784520
O	1.892260	5.676780	3.784520
O	0.000000	5.676780	5.676780
O	1.892260	3.784520	5.676780
Co	5.676780	1.892260	1.892260
La	3.784520	0.000000	0.000000
O	5.676780	1.892260	0.000000
O	3.784520	1.892260	1.892260
O	5.676780	0.000000	1.892260
Co	5.676780	1.892260	5.676780
La	3.784520	0.000000	3.784520
O	5.676780	1.892260	3.784520
O	3.784520	1.892260	5.676780
O	5.676780	0.000000	5.676780
Co	5.676780	5.676780	1.892260
La	3.784520	3.784520	0.000000
O	5.676780	5.676780	0.000000
O	3.784520	5.676780	1.892260
O	5.676780	3.784520	1.892260
Co	5.676780	5.676780	5.676780
La	3.784520	3.784520	3.784520
O	5.676780	5.676780	3.784520
O	3.784520	5.676780	5.676780
O	5.676780	3.784520	5.676780
