112

Mg	0.000000	0.000000	0.000000
Mg	2.422302	-2.422464	-2.422464
O	3.648557	-1.195829	-1.195829
O	-1.196038	1.195829	-3.649110
O	1.196038	-1.195829	-3.649110
O	1.226255	1.226646	-1.226646
O	6.040633	1.195829	-1.195829
O	1.226255	3.618293	-3.618293
O	3.618340	1.226646	-3.618293
O	3.618340	3.618293	-1.226646
Pr	-1.211151	-1.211232	-3.633706
Pr	3.633444	1.211232	-1.211232
Pr	6.055746	-1.211232	-1.211232
Pr	1.211151	1.211232	-3.633706
Mg	4.844596	4.844939	0.000000
Mg	7.266898	2.422474	-2.422464
O	8.493153	3.649110	-1.195829
O	3.648558	6.040767	-3.649110
O	6.040634	3.649110	-3.649110
O	6.070851	6.071584	-1.226646
O	10.885228	6.040767	-1.195829
O	6.070851	8.463232	-3.618293
O	8.462936	6.071584	-3.618293
O	8.462936	8.463232	-1.226646
Pr	3.633445	3.633706	-3.633706
Pr	8.478039	6.056171	-1.211232
Pr	10.900342	3.633706	-1.211232
Pr	6.055747	6.056171	-3.633706
Mg	-4.844596	0.000000	-4.844939
Mg	-2.422293	-2.422464	-7.267403
O	-1.196039	-1.195829	-6.040767
O	-6.040634	1.195829	-8.494049
O	-3.648558	-1.195829	-8.494049
O	-3.618341	1.226646	-6.071584
O	1.196037	1.195829	-6.040767
O	-3.618341	3.618293	-8.463232
O	-1.226256	1.226646	-8.463232
O	-1.226256	3.618293	-6.071584
Pr	-6.055747	-1.211232	-8.478645
Pr	-1.211152	1.211232	-6.056171
Pr	1.211150	-1.211232	-6.056171
Pr	-3.633445	1.211232	-8.478645
Mg	0.000000	4.844939	-4.844939
Mg	2.422302	2.422474	-7.267403
O	3.648557	3.649110	-6.040767
O	-1.196038	6.040767	-8.494049
O	1.196038	3.649110	-8.494049
O	1.226255	6.071584	-6.071584
O	6.040633	6.040767	-6.040767
O	1.226255	8.463232	-8.463232
O	3.618340	6.071584	-8.463232
O	3.618340	8.463232	-6.071584
Pr	-1.211151	3.633706	-8.478645
Pr	3.633444	6.056171	-6.056171
Pr	6.055746	3.633706	-6.056171
Pr	1.211151	6.056171	-8.478645
Mg	4.844596	-4.844939	0.000000
Mg	7.266898	-7.267403	-2.422464
O	8.493153	-6.040767	-1.195829
O	3.648558	-3.649110	-3.649110
O	6.040634	-6.040767	-3.649110
O	6.070851	-3.618293	-1.226646
O	10.885228	-3.649110	-1.195829
O	6.070851	-1.226646	-3.618293
O	8.462936	-3.618293	-3.618293
O	8.462936	-1.226646	-1.226646
Pr	3.633445	-6.056171	-3.633706
Pr	8.478039	-3.633706	-1.211232
Pr	10.900342	-6.056171	-1.211232
Pr	6.055747	-3.633706	-3.633706
Mg	9.689192	0.000000	0.000000
Mg	12.111494	-2.422464	-2.422464
O	13.337749	-1.195829	-1.195829
O	8.493154	1.195829	-3.649110
O	10.885229	-1.195829	-3.649110
O	10.915446	1.226646	-1.226646
O	15.729824	1.195829	-1.195829
O	10.915446	3.618293	-3.618293
O	13.307532	1.226646	-3.618293
O	13.307532	3.618293	-1.226646
Pr	8.478040	-1.211232	-3.633706
Pr	13.322635	1.211232	-1.211232
Pr	15.744938	-1.211232	-1.211232
Pr	10.900343	1.211232	-3.633706
Mg	0.000000	-4.844939	-4.844939
Mg	2.422302	-7.267403	-7.267403
O	3.648557	-6.040767	-6.040767
O	-1.196038	-3.649110	-8.494049
O	1.196038	-6.040767	-8.494049
O	1.226255	-3.618293	-6.071584
O	6.040633	-3.649110	-6.040767
O	1.226255	-1.226646	-8.463232
O	3.618340	-3.618293	-8.463232
O	3.618340	-1.226646	-6.071584
Pr	-1.211151	-6.056171	-8.478645
Pr	3.633444	-3.633706	-6.056171
Pr	6.055746	-6.056171	-6.056171
Pr	1.211151	-3.633706	-8.478645
Mg	4.844596	0.000000	-4.844939
Mg	7.266898	-2.422464	-7.267403
O	8.493153	-1.195829	-6.040767
O	3.648558	1.195829	-8.494049
O	6.040634	-1.195829	-8.494049
O	6.070851	1.226646	-6.071584
O	10.885228	1.195829	-6.040767
O	6.070851	3.618293	-8.463232
O	8.462936	1.226646	-8.463232
O	8.462936	3.618293	-6.071584
Pr	3.633445	-1.211232	-8.478645
Pr	8.478039	1.211232	-6.056171
Pr	10.900342	-1.211232	-6.056171
Pr	6.055747	1.211232	-8.478645
