40

Na	2.102791	2.102791	2.102791
O	0.000000	2.102791	2.102791
O	2.102791	0.000000	2.102791
O	2.102791	2.102791	0.000000
Sr	0.000000	0.000000	0.000000
Na	2.102791	2.102791	6.308374
O	0.000000	2.102791	6.308374
O	2.102791	0.000000	6.308374
O	2.102791	2.102791	4.205582
Sr	0.000000	0.000000	4.205582
Na	2.102791	6.308374	2.102791
O	0.000000	6.308374	2.102791
O	2.102791	4.205582	2.102791
O	2.102791	6.308374	0.000000
Sr	0.000000	4.205582	0.000000
Na	2.102791	6.308374	6.308374
O	0.000000	6.308374	6.308374
O	2.102791	4.205582	6.308374
O	2.102791	6.308374	4.205582
Sr	0.000000	4.205582	4.205582
Na	6.308374	2.102791	2.102791
O	4.205582	2.102791	2.102791
O	6.308374	0.000000	2.102791
O	6.308374	2.102791	0.000000
Sr	4.205582	0.000000	0.000000
Na	6.308374	2.102791	6.308374
O	4.205582	2.102791	6.308374
O	6.308374	0.000000	6.308374
O	6.308374	2.102791	4.205582
Sr	4.205582	0.000000	4.205582
Na	6.308374	6.308374	2.102791
O	4.205582	6.308374	2.102791
O	6.308374	4.205582	2.102791
O	6.308374	6.308374	0.000000
Sr	4.205582	4.205582	0.000000
Na	6.308374	6.308374	6.308374
O	4.205582	6.308374	6.308374
O	6.308374	4.205582	6.308374
O	6.308374	6.308374	4.205582
Sr	4.205582	4.205582	4.205582
