40

Na	2.054829	2.054829	2.054829
O	2.054829	2.054829	0.000000
O	2.054829	0.000000	2.054829
O	0.000000	2.054829	2.054829
Sr	0.000000	0.000000	0.000000
Na	2.054829	2.054829	6.164476
O	2.054829	2.054829	4.109647
O	2.054829	0.000000	6.164476
O	0.000000	2.054829	6.164476
Sr	0.000000	0.000000	4.109647
Na	2.054829	6.164476	2.054829
O	2.054829	6.164476	0.000000
O	2.054829	4.109647	2.054829
O	0.000000	6.164476	2.054829
Sr	0.000000	4.109647	0.000000
Na	2.054829	6.164476	6.164476
O	2.054829	6.164476	4.109647
O	2.054829	4.109647	6.164476
O	0.000000	6.164476	6.164476
Sr	0.000000	4.109647	4.109647
Na	6.164476	2.054829	2.054829
O	6.164476	2.054829	0.000000
O	6.164476	0.000000	2.054829
O	4.109647	2.054829	2.054829
Sr	4.109647	0.000000	0.000000
Na	6.164476	2.054829	6.164476
O	6.164476	2.054829	4.109647
O	6.164476	0.000000	6.164476
O	4.109647	2.054829	6.164476
Sr	4.109647	0.000000	4.109647
Na	6.164476	6.164476	2.054829
O	6.164476	6.164476	0.000000
O	6.164476	4.109647	2.054829
O	4.109647	6.164476	2.054829
Sr	4.109647	4.109647	0.000000
Na	6.164476	6.164476	6.164476
O	6.164476	6.164476	4.109647
O	6.164476	4.109647	6.164476
O	4.109647	6.164476	6.164476
Sr	4.109647	4.109647	4.109647
