40

Na	0.000000	0.000000	0.000000
O	2.265581	2.265581	0.000000
O	2.265581	0.000000	2.265581
O	0.000000	2.265581	2.265581
Sr	2.265581	2.265581	2.265581
Na	0.000000	0.000000	4.531150
O	2.265581	2.265581	4.531150
O	2.265581	0.000000	6.796730
O	0.000000	2.265581	6.796730
Sr	2.265581	2.265581	6.796730
Na	0.000000	4.531150	0.000000
O	2.265581	6.796730	0.000000
O	2.265581	4.531150	2.265581
O	0.000000	6.796730	2.265581
Sr	2.265581	6.796730	2.265581
Na	0.000000	4.531150	4.531150
O	2.265581	6.796730	4.531150
O	2.265581	4.531150	6.796730
O	0.000000	6.796730	6.796730
Sr	2.265581	6.796730	6.796730
Na	4.531150	0.000000	0.000000
O	6.796730	2.265581	0.000000
O	6.796730	0.000000	2.265581
O	4.531150	2.265581	2.265581
Sr	6.796730	2.265581	2.265581
Na	4.531150	0.000000	4.531150
O	6.796730	2.265581	4.531150
O	6.796730	0.000000	6.796730
O	4.531150	2.265581	6.796730
Sr	6.796730	2.265581	6.796730
Na	4.531150	4.531150	0.000000
O	6.796730	6.796730	0.000000
O	6.796730	4.531150	2.265581
O	4.531150	6.796730	2.265581
Sr	6.796730	6.796730	2.265581
Na	4.531150	4.531150	4.531150
O	6.796730	6.796730	4.531150
O	6.796730	4.531150	6.796730
O	4.531150	6.796730	6.796730
Sr	6.796730	6.796730	6.796730
