112

As	0.000000	0.000000	0.000000
As	2.340176	-2.340605	-2.340605
Hf	-1.170088	-1.170302	-3.510907
Hf	3.510264	1.170302	-1.170302
Hf	5.850440	-1.170302	-1.170302
Hf	1.170088	1.170302	-3.510907
O	3.754814	-0.925157	-0.925157
O	-0.925538	0.925158	-3.756052
O	0.925538	-0.925157	-3.756052
O	1.414638	1.415447	-1.415447
O	5.605890	0.925158	-0.925157
O	1.414638	3.265762	-3.265762
O	3.265714	3.265762	-1.415447
O	3.265714	1.415447	-3.265762
As	4.680352	4.681209	0.000000
As	7.020528	2.340605	-2.340605
Hf	3.510264	3.510907	-3.510907
Hf	8.190616	5.851512	-1.170302
Hf	10.530792	3.510907	-1.170302
Hf	5.850440	5.851512	-3.510907
O	8.435166	3.756052	-0.925157
O	3.754814	5.606367	-3.756052
O	5.605890	3.756052	-3.756052
O	6.094990	6.096657	-1.415447
O	10.286242	5.606367	-0.925157
O	6.094990	7.946972	-3.265762
O	7.946066	7.946972	-1.415447
O	7.946066	6.096657	-3.265762
As	-4.680352	0.000000	-4.681209
As	-2.340176	-2.340605	-7.021814
Hf	-5.850440	-1.170302	-8.192116
Hf	-1.170088	1.170302	-5.851512
Hf	1.170088	-1.170302	-5.851512
Hf	-3.510264	1.170302	-8.192116
O	-0.925538	-0.925157	-5.606367
O	-5.605890	0.925158	-8.437261
O	-3.754814	-0.925157	-8.437261
O	-3.265714	1.415447	-6.096657
O	0.925538	0.925158	-5.606367
O	-3.265714	3.265762	-7.946972
O	-1.414638	3.265762	-6.096657
O	-1.414638	1.415447	-7.946972
As	0.000000	4.681209	-4.681209
As	2.340176	2.340605	-7.021814
Hf	-1.170088	3.510907	-8.192116
Hf	3.510264	5.851512	-5.851512
Hf	5.850440	3.510907	-5.851512
Hf	1.170088	5.851512	-8.192116
O	3.754814	3.756052	-5.606367
O	-0.925538	5.606367	-8.437261
O	0.925538	3.756052	-8.437261
O	1.414638	6.096657	-6.096657
O	5.605890	5.606367	-5.606367
O	1.414638	7.946972	-7.946972
O	3.265714	7.946972	-6.096657
O	3.265714	6.096657	-7.946972
As	4.680352	-4.681209	0.000000
As	7.020528	-7.021814	-2.340605
Hf	3.510264	-5.851512	-3.510907
Hf	8.190616	-3.510907	-1.170302
Hf	10.530792	-5.851512	-1.170302
Hf	5.850440	-3.510907	-3.510907
O	8.435166	-5.606367	-0.925157
O	3.754814	-3.756052	-3.756052
O	5.605890	-5.606367	-3.756052
O	6.094990	-3.265762	-1.415447
O	10.286242	-3.756052	-0.925157
O	6.094990	-1.415447	-3.265762
O	7.946066	-1.415447	-1.415447
O	7.946066	-3.265762	-3.265762
As	9.360704	0.000000	0.000000
As	11.700880	-2.340605	-2.340605
Hf	8.190616	-1.170302	-3.510907
Hf	12.870968	1.170302	-1.170302
Hf	15.211144	-1.170302	-1.170302
Hf	10.530792	1.170302	-3.510907
O	13.115518	-0.925157	-0.925157
O	8.435166	0.925158	-3.756052
O	10.286242	-0.925157	-3.756052
O	10.775342	1.415447	-1.415447
O	14.966593	0.925158	-0.925157
O	10.775342	3.265762	-3.265762
O	12.626417	3.265762	-1.415447
O	12.626417	1.415447	-3.265762
As	0.000000	-4.681209	-4.681209
As	2.340176	-7.021814	-7.021814
Hf	-1.170088	-5.851512	-8.192116
Hf	3.510264	-3.510907	-5.851512
Hf	5.850440	-5.851512	-5.851512
Hf	1.170088	-3.510907	-8.192116
O	3.754814	-5.606367	-5.606367
O	-0.925538	-3.756052	-8.437261
O	0.925538	-5.606367	-8.437261
O	1.414638	-3.265762	-6.096657
O	5.605890	-3.756052	-5.606367
O	1.414638	-1.415447	-7.946972
O	3.265714	-1.415447	-6.096657
O	3.265714	-3.265762	-7.946972
As	4.680352	0.000000	-4.681209
As	7.020528	-2.340605	-7.021814
Hf	3.510264	-1.170302	-8.192116
Hf	8.190616	1.170302	-5.851512
Hf	10.530792	-1.170302	-5.851512
Hf	5.850440	1.170302	-8.192116
O	8.435166	-0.925157	-5.606367
O	3.754814	0.925158	-8.437261
O	5.605890	-0.925157	-8.437261
O	6.094990	1.415447	-6.096657
O	10.286242	0.925158	-5.606367
O	6.094990	3.265762	-7.946972
O	7.946066	3.265762	-6.096657
O	7.946066	1.415447	-7.946972
