40

Au	0.000000	0.000000	0.000000
O	2.175416	2.175416	0.000000
O	2.175416	0.000000	2.175416
O	0.000000	2.175416	2.175416
Rb	2.175416	2.175416	2.175416
Au	0.000000	0.000000	4.350824
O	2.175416	2.175416	4.350824
O	2.175416	0.000000	6.526240
O	0.000000	2.175416	6.526240
Rb	2.175416	2.175416	6.526240
Au	0.000000	4.350824	0.000000
O	2.175416	6.526240	0.000000
O	2.175416	4.350824	2.175416
O	0.000000	6.526240	2.175416
Rb	2.175416	6.526240	2.175416
Au	0.000000	4.350824	4.350824
O	2.175416	6.526240	4.350824
O	2.175416	4.350824	6.526240
O	0.000000	6.526240	6.526240
Rb	2.175416	6.526240	6.526240
Au	4.350824	0.000000	0.000000
O	6.526240	2.175416	0.000000
O	6.526240	0.000000	2.175416
O	4.350824	2.175416	2.175416
Rb	6.526240	2.175416	2.175416
Au	4.350824	0.000000	4.350824
O	6.526240	2.175416	4.350824
O	6.526240	0.000000	6.526240
O	4.350824	2.175416	6.526240
Rb	6.526240	2.175416	6.526240
Au	4.350824	4.350824	0.000000
O	6.526240	6.526240	0.000000
O	6.526240	4.350824	2.175416
O	4.350824	6.526240	2.175416
Rb	6.526240	6.526240	2.175416
Au	4.350824	4.350824	4.350824
O	6.526240	6.526240	4.350824
O	6.526240	4.350824	6.526240
O	4.350824	6.526240	6.526240
Rb	6.526240	6.526240	6.526240
