40

Au	2.110442	2.110442	2.110442
O	0.000000	2.110442	2.110442
O	2.110442	0.000000	2.110442
O	2.110442	2.110442	0.000000
Rb	0.000000	0.000000	0.000000
Au	2.110442	2.110442	6.331326
O	0.000000	2.110442	6.331326
O	2.110442	0.000000	6.331326
O	2.110442	2.110442	4.220884
Rb	0.000000	0.000000	4.220884
Au	2.110442	6.331326	2.110442
O	0.000000	6.331326	2.110442
O	2.110442	4.220884	2.110442
O	2.110442	6.331326	0.000000
Rb	0.000000	4.220884	0.000000
Au	2.110442	6.331326	6.331326
O	0.000000	6.331326	6.331326
O	2.110442	4.220884	6.331326
O	2.110442	6.331326	4.220884
Rb	0.000000	4.220884	4.220884
Au	6.331326	2.110442	2.110442
O	4.220884	2.110442	2.110442
O	6.331326	0.000000	2.110442
O	6.331326	2.110442	0.000000
Rb	4.220884	0.000000	0.000000
Au	6.331326	2.110442	6.331326
O	4.220884	2.110442	6.331326
O	6.331326	0.000000	6.331326
O	6.331326	2.110442	4.220884
Rb	4.220884	0.000000	4.220884
Au	6.331326	6.331326	2.110442
O	4.220884	6.331326	2.110442
O	6.331326	4.220884	2.110442
O	6.331326	6.331326	0.000000
Rb	4.220884	4.220884	0.000000
Au	6.331326	6.331326	6.331326
O	4.220884	6.331326	6.331326
O	6.331326	4.220884	6.331326
O	6.331326	6.331326	4.220884
Rb	4.220884	4.220884	4.220884
