112

B	0.000000	0.000000	0.000000
B	2.106526	-2.106676	-2.106676
Na	-1.053268	-1.053343	-3.160018
Na	5.266329	-1.053343	-1.053343
Na	3.159793	1.053343	-1.053343
Na	1.053268	1.053343	-3.160018
O	0.834986	0.835244	-0.835244
O	2.941511	-1.271432	-1.271432
O	-1.271549	1.271432	-2.941930
O	1.271549	-1.271432	-2.941930
O	0.834986	3.378117	-3.378117
O	3.378075	3.378117	-0.835244
O	3.378075	0.835244	-3.378117
O	5.484600	1.271432	-1.271432
B	4.213060	4.213360	0.000000
B	6.319586	2.106684	-2.106676
Na	3.159792	3.160017	-3.160018
Na	9.479389	3.160017	-1.053343
Na	7.372853	5.266702	-1.053343
Na	5.266328	5.266702	-3.160018
O	5.048046	5.048604	-0.835244
O	7.154572	2.941928	-1.271432
O	2.941511	5.484791	-2.941930
O	5.484610	2.941928	-2.941930
O	5.048046	7.591477	-3.378117
O	7.591135	7.591477	-0.835244
O	7.591135	5.048604	-3.378117
O	9.697661	5.484791	-1.271432
B	-4.213060	0.000000	-4.213360
B	-2.106535	-2.106676	-6.320035
Na	-5.266328	-1.053343	-7.373378
Na	1.053268	-1.053343	-5.266702
Na	-1.053267	1.053343	-5.266702
Na	-3.159792	1.053343	-7.373378
O	-3.378074	0.835244	-5.048604
O	-1.271549	-1.271432	-5.484791
O	-5.484610	1.271432	-7.155289
O	-2.941511	-1.271432	-7.155289
O	-3.378074	3.378117	-7.591477
O	-0.834985	3.378117	-5.048604
O	-0.834985	0.835244	-7.591477
O	1.271540	1.271432	-5.484791
B	0.000000	4.213360	-4.213360
B	2.106526	2.106684	-6.320035
Na	-1.053268	3.160017	-7.373378
Na	5.266329	3.160017	-5.266702
Na	3.159793	5.266702	-5.266702
Na	1.053268	5.266702	-7.373378
O	0.834986	5.048604	-5.048604
O	2.941511	2.941928	-5.484791
O	-1.271549	5.484791	-7.155289
O	1.271549	2.941928	-7.155289
O	0.834986	7.591477	-7.591477
O	3.378075	7.591477	-5.048604
O	3.378075	5.048604	-7.591477
O	5.484600	5.484791	-5.484791
B	4.213060	-4.213360	0.000000
B	6.319586	-6.320035	-2.106676
Na	3.159792	-5.266702	-3.160018
Na	9.479389	-5.266702	-1.053343
Na	7.372853	-3.160017	-1.053343
Na	5.266328	-3.160017	-3.160018
O	5.048046	-3.378116	-0.835244
O	7.154572	-5.484791	-1.271432
O	2.941511	-2.941928	-2.941930
O	5.484610	-5.484791	-2.941930
O	5.048046	-0.835242	-3.378117
O	7.591135	-0.835242	-0.835244
O	7.591135	-3.378116	-3.378117
O	9.697661	-2.941928	-1.271432
B	8.426120	0.000000	0.000000
B	10.532646	-2.106676	-2.106676
Na	7.372852	-1.053343	-3.160018
Na	13.692449	-1.053343	-1.053343
Na	11.585913	1.053343	-1.053343
Na	9.479388	1.053343	-3.160018
O	9.261106	0.835244	-0.835244
O	11.367632	-1.271432	-1.271432
O	7.154571	1.271432	-2.941930
O	9.697670	-1.271432	-2.941930
O	9.261106	3.378117	-3.378117
O	11.804195	3.378117	-0.835244
O	11.804195	0.835244	-3.378117
O	13.910721	1.271432	-1.271432
B	0.000000	-4.213360	-4.213360
B	2.106526	-6.320035	-6.320035
Na	-1.053268	-5.266702	-7.373378
Na	5.266329	-5.266702	-5.266702
Na	3.159793	-3.160017	-5.266702
Na	1.053268	-3.160017	-7.373378
O	0.834986	-3.378116	-5.048604
O	2.941511	-5.484791	-5.484791
O	-1.271549	-2.941928	-7.155289
O	1.271549	-5.484791	-7.155289
O	0.834986	-0.835242	-7.591477
O	3.378075	-0.835242	-5.048604
O	3.378075	-3.378116	-7.591477
O	5.484600	-2.941928	-5.484791
B	4.213060	0.000000	-4.213360
B	6.319586	-2.106676	-6.320035
Na	3.159792	-1.053343	-7.373378
Na	9.479389	-1.053343	-5.266702
Na	7.372853	1.053343	-5.266702
Na	5.266328	1.053343	-7.373378
O	5.048046	0.835244	-5.048604
O	7.154572	-1.271432	-5.484791
O	2.941511	1.271432	-7.155289
O	5.484610	-1.271432	-7.155289
O	5.048046	3.378117	-7.591477
O	7.591135	3.378117	-5.048604
O	7.591135	0.835244	-7.591477
O	9.697661	1.271432	-5.484791
