40

K	0.000000	0.000000	0.000000
O	2.298534	2.298534	0.000000
O	2.298534	0.000000	2.298534
O	0.000000	2.298534	2.298534
Sr	2.298534	2.298534	2.298534
K	0.000000	0.000000	4.597072
O	2.298534	2.298534	4.597072
O	2.298534	0.000000	6.895607
O	0.000000	2.298534	6.895607
Sr	2.298534	2.298534	6.895607
K	0.000000	4.597072	0.000000
O	2.298534	6.895607	0.000000
O	2.298534	4.597072	2.298534
O	0.000000	6.895607	2.298534
Sr	2.298534	6.895607	2.298534
K	0.000000	4.597072	4.597072
O	2.298534	6.895607	4.597072
O	2.298534	4.597072	6.895607
O	0.000000	6.895607	6.895607
Sr	2.298534	6.895607	6.895607
K	4.597072	0.000000	0.000000
O	6.895607	2.298534	0.000000
O	6.895607	0.000000	2.298534
O	4.597072	2.298534	2.298534
Sr	6.895607	2.298534	2.298534
K	4.597072	0.000000	4.597072
O	6.895607	2.298534	4.597072
O	6.895607	0.000000	6.895607
O	4.597072	2.298534	6.895607
Sr	6.895607	2.298534	6.895607
K	4.597072	4.597072	0.000000
O	6.895607	6.895607	0.000000
O	6.895607	4.597072	2.298534
O	4.597072	6.895607	2.298534
Sr	6.895607	6.895607	2.298534
K	4.597072	4.597072	4.597072
O	6.895607	6.895607	4.597072
O	6.895607	4.597072	6.895607
O	4.597072	6.895607	6.895607
Sr	6.895607	6.895607	6.895607
