112

As	0.000000	0.000000	0.000000
As	2.190538	-2.191456	-2.191456
O	3.413249	-0.967857	-0.967857
O	-0.967827	0.967856	-3.415056
O	0.967827	-0.967857	-3.415056
O	1.222711	1.223600	-1.223600
O	5.348903	0.967856	-0.967857
O	1.222711	3.159313	-3.159313
O	3.158365	3.159313	-1.223600
O	3.158365	1.223600	-3.159313
Ti	-1.095269	-1.095728	-3.287184
Ti	3.285807	1.095728	-1.095728
Ti	5.476345	-1.095728	-1.095728
Ti	1.095269	1.095728	-3.287184
As	4.381076	4.382912	0.000000
As	6.571614	2.191456	-2.191456
O	7.794324	3.415056	-0.967857
O	3.413249	5.350769	-3.415056
O	5.348903	3.415056	-3.415056
O	5.603787	5.606512	-1.223600
O	9.729979	5.350769	-0.967857
O	5.603787	7.542225	-3.159313
O	7.539441	7.542225	-1.223600
O	7.539441	5.606512	-3.159313
Ti	3.285807	3.287184	-3.287184
Ti	7.666883	5.478640	-1.095728
Ti	9.857421	3.287184	-1.095728
Ti	5.476345	5.478640	-3.287184
As	-4.381076	0.000000	-4.382912
As	-2.190538	-2.191456	-6.574368
O	-0.967827	-0.967857	-5.350769
O	-5.348903	0.967856	-7.797968
O	-3.413249	-0.967857	-7.797968
O	-3.158365	1.223600	-5.606512
O	0.967827	0.967856	-5.350769
O	-3.158365	3.159313	-7.542225
O	-1.222711	3.159313	-5.606512
O	-1.222711	1.223600	-7.542225
Ti	-5.476345	-1.095728	-7.670096
Ti	-1.095269	1.095728	-5.478640
Ti	1.095269	-1.095728	-5.478640
Ti	-3.285807	1.095728	-7.670096
As	0.000000	4.382912	-4.382912
As	2.190538	2.191456	-6.574368
O	3.413249	3.415056	-5.350769
O	-0.967827	5.350769	-7.797968
O	0.967827	3.415056	-7.797968
O	1.222711	5.606512	-5.606512
O	5.348903	5.350769	-5.350769
O	1.222711	7.542225	-7.542225
O	3.158365	7.542225	-5.606512
O	3.158365	5.606512	-7.542225
Ti	-1.095269	3.287184	-7.670096
Ti	3.285807	5.478640	-5.478640
Ti	5.476345	3.287184	-5.478640
Ti	1.095269	5.478640	-7.670096
As	4.381076	-4.382912	0.000000
As	6.571614	-6.574368	-2.191456
O	7.794324	-5.350769	-0.967857
O	3.413249	-3.415056	-3.415056
O	5.348903	-5.350769	-3.415056
O	5.603787	-3.159312	-1.223600
O	9.729979	-3.415056	-0.967857
O	5.603787	-1.223600	-3.159313
O	7.539441	-1.223600	-1.223600
O	7.539441	-3.159312	-3.159313
Ti	3.285807	-5.478640	-3.287184
Ti	7.666883	-3.287184	-1.095728
Ti	9.857421	-5.478640	-1.095728
Ti	5.476345	-3.287184	-3.287184
As	8.762152	0.000000	0.000000
As	10.952690	-2.191456	-2.191456
O	12.175400	-0.967857	-0.967857
O	7.794325	0.967856	-3.415056
O	9.729979	-0.967857	-3.415056
O	9.984862	1.223600	-1.223600
O	14.111055	0.967856	-0.967857
O	9.984862	3.159313	-3.159313
O	11.920517	3.159313	-1.223600
O	11.920517	1.223600	-3.159313
Ti	7.666883	-1.095728	-3.287184
Ti	12.047959	1.095728	-1.095728
Ti	14.238497	-1.095728	-1.095728
Ti	9.857421	1.095728	-3.287184
As	0.000000	-4.382912	-4.382912
As	2.190538	-6.574368	-6.574368
O	3.413249	-5.350769	-5.350769
O	-0.967827	-3.415056	-7.797968
O	0.967827	-5.350769	-7.797968
O	1.222711	-3.159312	-5.606512
O	5.348903	-3.415056	-5.350769
O	1.222711	-1.223600	-7.542225
O	3.158365	-1.223600	-5.606512
O	3.158365	-3.159312	-7.542225
Ti	-1.095269	-5.478640	-7.670096
Ti	3.285807	-3.287184	-5.478640
Ti	5.476345	-5.478640	-5.478640
Ti	1.095269	-3.287184	-7.670096
As	4.381076	0.000000	-4.382912
As	6.571614	-2.191456	-6.574368
O	7.794324	-0.967857	-5.350769
O	3.413249	0.967856	-7.797968
O	5.348903	-0.967857	-7.797968
O	5.603787	1.223600	-5.606512
O	9.729979	0.967856	-5.350769
O	5.603787	3.159313	-7.542225
O	7.539441	3.159313	-5.606512
O	7.539441	1.223600	-7.542225
Ti	3.285807	-1.095728	-7.670096
Ti	7.666883	1.095728	-5.478640
Ti	9.857421	-1.095728	-5.478640
Ti	5.476345	1.095728	-7.670096
