112

As	0.000000	0.000000	0.000000
As	2.412518	-2.412507	-2.412507
O	1.002416	1.002431	-1.002431
O	3.414924	-1.410076	-1.410076
O	-1.410102	1.410076	-3.414938
O	1.410102	-1.410076	-3.414938
O	1.002416	3.822582	-3.822582
O	3.822620	3.822582	-1.002431
O	3.822620	1.002431	-3.822582
O	6.235128	1.410076	-1.410076
Tl	-1.206259	-1.206258	-3.618765
Tl	6.031285	-1.206258	-1.206258
Tl	3.618767	1.206258	-1.206258
Tl	1.206259	1.206258	-3.618765
As	4.825028	4.825015	0.000000
As	7.237546	2.412508	-2.412507
O	5.827444	5.827446	-1.002431
O	8.239952	3.414940	-1.410076
O	3.414926	6.235091	-3.414938
O	6.235130	3.414940	-3.414938
O	5.827444	8.647598	-3.822582
O	8.647648	8.647598	-1.002431
O	8.647648	5.827446	-3.822582
O	11.060156	6.235091	-1.410076
Tl	3.618769	3.618757	-3.618765
Tl	10.856313	3.618757	-1.206258
Tl	8.443795	6.031274	-1.206258
Tl	6.031287	6.031274	-3.618765
As	-4.825028	0.000000	-4.825015
As	-2.412511	-2.412507	-7.237522
O	-3.822613	1.002431	-5.827446
O	-1.410105	-1.410076	-6.235091
O	-6.235130	1.410076	-8.239953
O	-3.414926	-1.410076	-8.239953
O	-3.822613	3.822582	-8.647598
O	-1.002409	3.822582	-5.827446
O	-1.002409	1.002431	-8.647598
O	1.410099	1.410076	-6.235091
Tl	-6.031287	-1.206258	-8.443780
Tl	1.206256	-1.206258	-6.031274
Tl	-1.206262	1.206258	-6.031274
Tl	-3.618769	1.206258	-8.443780
As	0.000000	4.825015	-4.825015
As	2.412518	2.412508	-7.237522
O	1.002416	5.827446	-5.827446
O	3.414924	3.414940	-6.235091
O	-1.410102	6.235091	-8.239953
O	1.410102	3.414940	-8.239953
O	1.002416	8.647598	-8.647598
O	3.822620	8.647598	-5.827446
O	3.822620	5.827446	-8.647598
O	6.235128	6.235091	-6.235091
Tl	-1.206259	3.618757	-8.443780
Tl	6.031285	3.618757	-6.031274
Tl	3.618767	6.031274	-6.031274
Tl	1.206259	6.031274	-8.443780
As	4.825028	-4.825015	0.000000
As	7.237546	-7.237522	-2.412507
O	5.827444	-3.822584	-1.002431
O	8.239952	-6.235091	-1.410076
O	3.414926	-3.414940	-3.414938
O	6.235130	-6.235091	-3.414938
O	5.827444	-1.002433	-3.822582
O	8.647648	-1.002433	-1.002431
O	8.647648	-3.822584	-3.822582
O	11.060156	-3.414940	-1.410076
Tl	3.618769	-6.031274	-3.618765
Tl	10.856313	-6.031274	-1.206258
Tl	8.443795	-3.618757	-1.206258
Tl	6.031287	-3.618757	-3.618765
As	9.650057	0.000000	0.000000
As	12.062575	-2.412507	-2.412507
O	10.652473	1.002431	-1.002431
O	13.064981	-1.410076	-1.410076
O	8.239955	1.410076	-3.414938
O	11.060159	-1.410076	-3.414938
O	10.652473	3.822582	-3.822582
O	13.472677	3.822582	-1.002431
O	13.472677	1.002431	-3.822582
O	15.885185	1.410076	-1.410076
Tl	8.443798	-1.206258	-3.618765
Tl	15.681341	-1.206258	-1.206258
Tl	13.268824	1.206258	-1.206258
Tl	10.856316	1.206258	-3.618765
As	0.000000	-4.825015	-4.825015
As	2.412518	-7.237522	-7.237522
O	1.002416	-3.822584	-5.827446
O	3.414924	-6.235091	-6.235091
O	-1.410102	-3.414940	-8.239953
O	1.410102	-6.235091	-8.239953
O	1.002416	-1.002433	-8.647598
O	3.822620	-1.002433	-5.827446
O	3.822620	-3.822584	-8.647598
O	6.235128	-3.414940	-6.235091
Tl	-1.206259	-6.031274	-8.443780
Tl	6.031285	-6.031274	-6.031274
Tl	3.618767	-3.618757	-6.031274
Tl	1.206259	-3.618757	-8.443780
As	4.825028	0.000000	-4.825015
As	7.237546	-2.412507	-7.237522
O	5.827444	1.002431	-5.827446
O	8.239952	-1.410076	-6.235091
O	3.414926	1.410076	-8.239953
O	6.235130	-1.410076	-8.239953
O	5.827444	3.822582	-8.647598
O	8.647648	3.822582	-5.827446
O	8.647648	1.002431	-8.647598
O	11.060156	1.410076	-6.235091
Tl	3.618769	-1.206258	-8.443780
Tl	10.856313	-1.206258	-6.031274
Tl	8.443795	1.206258	-6.031274
Tl	6.031287	1.206258	-8.443780
