112

O	3.753799	-1.254514	-1.254514
O	-1.254699	1.254514	-3.755599
O	1.254699	-1.254514	-3.755599
O	1.249550	1.250543	-1.250543
O	6.263197	1.254514	-1.254514
O	1.249550	3.759570	-3.759570
O	3.758948	3.759570	-1.250543
O	3.758948	1.250543	-3.759570
Tb	0.000000	0.000000	0.000000
Tb	2.504249	-2.505056	-2.505056
Th	-1.252125	-1.252528	-3.757585
Th	3.756374	1.252528	-1.252528
Th	6.260623	-1.252528	-1.252528
Th	1.252125	1.252528	-3.757585
O	8.762297	3.755599	-1.254514
O	3.753799	6.264626	-3.755599
O	6.263197	3.755599	-3.755599
O	6.258048	6.260655	-1.250543
O	11.271695	6.264626	-1.254514
O	6.258048	8.769683	-3.759570
O	8.767446	8.769683	-1.250543
O	8.767446	6.260655	-3.759570
Tb	5.008498	5.010113	0.000000
Tb	7.512747	2.505056	-2.505056
Th	3.756374	3.757585	-3.757585
Th	8.764872	6.262641	-1.252528
Th	11.269121	3.757585	-1.252528
Th	6.260623	6.262641	-3.757585
O	-1.254699	-1.254514	-6.264626
O	-6.263197	1.254514	-8.765712
O	-3.753799	-1.254514	-8.765712
O	-3.758948	1.250543	-6.260655
O	1.254699	1.254514	-6.264626
O	-3.758948	3.759570	-8.769683
O	-1.249550	3.759570	-6.260655
O	-1.249550	1.250543	-8.769683
Tb	-5.008498	0.000000	-5.010113
Tb	-2.504249	-2.505056	-7.515169
Th	-6.260623	-1.252528	-8.767697
Th	-1.252125	1.252528	-6.262641
Th	1.252125	-1.252528	-6.262641
Th	-3.756374	1.252528	-8.767697
O	3.753799	3.755599	-6.264626
O	-1.254699	6.264626	-8.765712
O	1.254699	3.755599	-8.765712
O	1.249550	6.260655	-6.260655
O	6.263197	6.264626	-6.264626
O	1.249550	8.769683	-8.769683
O	3.758948	8.769683	-6.260655
O	3.758948	6.260655	-8.769683
Tb	0.000000	5.010113	-5.010113
Tb	2.504249	2.505056	-7.515169
Th	-1.252125	3.757585	-8.767697
Th	3.756374	6.262641	-6.262641
Th	6.260623	3.757585	-6.262641
Th	1.252125	6.262641	-8.767697
O	8.762297	-6.264626	-1.254514
O	3.753799	-3.755599	-3.755599
O	6.263197	-6.264626	-3.755599
O	6.258048	-3.759570	-1.250543
O	11.271695	-3.755599	-1.254514
O	6.258048	-1.250543	-3.759570
O	8.767446	-1.250543	-1.250543
O	8.767446	-3.759570	-3.759570
Tb	5.008498	-5.010113	0.000000
Tb	7.512747	-7.515169	-2.505056
Th	3.756374	-6.262641	-3.757585
Th	8.764872	-3.757585	-1.252528
Th	11.269121	-6.262641	-1.252528
Th	6.260623	-3.757585	-3.757585
O	13.770795	-1.254514	-1.254514
O	8.762297	1.254514	-3.755599
O	11.271695	-1.254514	-3.755599
O	11.266546	1.250543	-1.250543
O	16.280193	1.254514	-1.254514
O	11.266546	3.759570	-3.759570
O	13.775944	3.759570	-1.250543
O	13.775944	1.250543	-3.759570
Tb	10.016996	0.000000	0.000000
Tb	12.521245	-2.505056	-2.505056
Th	8.764872	-1.252528	-3.757585
Th	13.773370	1.252528	-1.252528
Th	16.277619	-1.252528	-1.252528
Th	11.269121	1.252528	-3.757585
O	3.753799	-6.264626	-6.264626
O	-1.254699	-3.755599	-8.765712
O	1.254699	-6.264626	-8.765712
O	1.249550	-3.759570	-6.260655
O	6.263197	-3.755599	-6.264626
O	1.249550	-1.250543	-8.769683
O	3.758948	-1.250543	-6.260655
O	3.758948	-3.759570	-8.769683
Tb	0.000000	-5.010113	-5.010113
Tb	2.504249	-7.515169	-7.515169
Th	-1.252125	-6.262641	-8.767697
Th	3.756374	-3.757585	-6.262641
Th	6.260623	-6.262641	-6.262641
Th	1.252125	-3.757585	-8.767697
O	8.762297	-1.254514	-6.264626
O	3.753799	1.254514	-8.765712
O	6.263197	-1.254514	-8.765712
O	6.258048	1.250543	-6.260655
O	11.271695	1.254514	-6.264626
O	6.258048	3.759570	-8.769683
O	8.767446	3.759570	-6.260655
O	8.767446	1.250543	-8.769683
Tb	5.008498	0.000000	-5.010113
Tb	7.512747	-2.505056	-7.515169
Th	3.756374	-1.252528	-8.767697
Th	8.764872	1.252528	-6.262641
Th	11.269121	-1.252528	-6.262641
Th	6.260623	1.252528	-8.767697
