40

Be	1.714654	1.714654	1.714654
Nb	0.000000	0.000000	0.000000
O	0.000000	1.714654	1.714654
O	1.714654	0.000000	1.714654
O	1.714654	1.714654	0.000000
Be	1.714654	1.714654	5.143961
Nb	0.000000	0.000000	3.429307
O	0.000000	1.714654	5.143961
O	1.714654	0.000000	5.143961
O	1.714654	1.714654	3.429307
Be	1.714654	5.143961	1.714654
Nb	0.000000	3.429307	0.000000
O	0.000000	5.143961	1.714654
O	1.714654	3.429307	1.714654
O	1.714654	5.143961	0.000000
Be	1.714654	5.143961	5.143961
Nb	0.000000	3.429307	3.429307
O	0.000000	5.143961	5.143961
O	1.714654	3.429307	5.143961
O	1.714654	5.143961	3.429307
Be	5.143961	1.714654	1.714654
Nb	3.429307	0.000000	0.000000
O	3.429307	1.714654	1.714654
O	5.143961	0.000000	1.714654
O	5.143961	1.714654	0.000000
Be	5.143961	1.714654	5.143961
Nb	3.429307	0.000000	3.429307
O	3.429307	1.714654	5.143961
O	5.143961	0.000000	5.143961
O	5.143961	1.714654	3.429307
Be	5.143961	5.143961	1.714654
Nb	3.429307	3.429307	0.000000
O	3.429307	5.143961	1.714654
O	5.143961	3.429307	1.714654
O	5.143961	5.143961	0.000000
Be	5.143961	5.143961	5.143961
Nb	3.429307	3.429307	3.429307
O	3.429307	5.143961	5.143961
O	5.143961	3.429307	5.143961
O	5.143961	5.143961	3.429307
