40

Be	0.000000	0.000000	0.000000
Nb	1.987564	1.987564	1.987564
O	0.000000	1.987564	1.987564
O	1.987564	0.000000	1.987564
O	1.987564	1.987564	0.000000
Be	0.000000	0.000000	3.975127
Nb	1.987564	1.987564	5.962691
O	0.000000	1.987564	5.962691
O	1.987564	0.000000	5.962691
O	1.987564	1.987564	3.975127
Be	0.000000	3.975127	0.000000
Nb	1.987564	5.962691	1.987564
O	0.000000	5.962691	1.987564
O	1.987564	3.975127	1.987564
O	1.987564	5.962691	0.000000
Be	0.000000	3.975127	3.975127
Nb	1.987564	5.962691	5.962691
O	0.000000	5.962691	5.962691
O	1.987564	3.975127	5.962691
O	1.987564	5.962691	3.975127
Be	3.975127	0.000000	0.000000
Nb	5.962691	1.987564	1.987564
O	3.975127	1.987564	1.987564
O	5.962691	0.000000	1.987564
O	5.962691	1.987564	0.000000
Be	3.975127	0.000000	3.975127
Nb	5.962691	1.987564	5.962691
O	3.975127	1.987564	5.962691
O	5.962691	0.000000	5.962691
O	5.962691	1.987564	3.975127
Be	3.975127	3.975127	0.000000
Nb	5.962691	5.962691	1.987564
O	3.975127	5.962691	1.987564
O	5.962691	3.975127	1.987564
O	5.962691	5.962691	0.000000
Be	3.975127	3.975127	3.975127
Nb	5.962691	5.962691	5.962691
O	3.975127	5.962691	5.962691
O	5.962691	3.975127	5.962691
O	5.962691	5.962691	3.975127
