40

Co	1.831726	1.831726	1.831726
O	1.831726	1.831726	0.000000
O	1.831726	0.000000	1.831726
O	0.000000	1.831726	1.831726
Re	0.000000	0.000000	0.000000
Co	1.831726	1.831726	5.495175
O	1.831726	1.831726	3.663450
O	1.831726	0.000000	5.495175
O	0.000000	1.831726	5.495175
Re	0.000000	0.000000	3.663450
Co	1.831726	5.495175	1.831726
O	1.831726	5.495175	0.000000
O	1.831726	3.663450	1.831726
O	0.000000	5.495175	1.831726
Re	0.000000	3.663450	0.000000
Co	1.831726	5.495175	5.495175
O	1.831726	5.495175	3.663450
O	1.831726	3.663450	5.495175
O	0.000000	5.495175	5.495175
Re	0.000000	3.663450	3.663450
Co	5.495175	1.831726	1.831726
O	5.495175	1.831726	0.000000
O	5.495175	0.000000	1.831726
O	3.663450	1.831726	1.831726
Re	3.663450	0.000000	0.000000
Co	5.495175	1.831726	5.495175
O	5.495175	1.831726	3.663450
O	5.495175	0.000000	5.495175
O	3.663450	1.831726	5.495175
Re	3.663450	0.000000	3.663450
Co	5.495175	5.495175	1.831726
O	5.495175	5.495175	0.000000
O	5.495175	3.663450	1.831726
O	3.663450	5.495175	1.831726
Re	3.663450	3.663450	0.000000
Co	5.495175	5.495175	5.495175
O	5.495175	5.495175	3.663450
O	5.495175	3.663450	5.495175
O	3.663450	5.495175	5.495175
Re	3.663450	3.663450	3.663450
