40

Co	1.829910	1.829910	1.829910
O	1.829910	1.829910	0.000000
O	0.000000	1.829910	1.829910
O	1.829910	0.000000	1.829910
Re	0.000000	0.000000	0.000000
Co	1.829910	1.829910	5.489732
O	1.829910	1.829910	3.659822
O	0.000000	1.829910	5.489732
O	1.829910	0.000000	5.489732
Re	0.000000	0.000000	3.659822
Co	1.829910	5.489732	1.829910
O	1.829910	5.489732	0.000000
O	0.000000	5.489732	1.829910
O	1.829910	3.659822	1.829910
Re	0.000000	3.659822	0.000000
Co	1.829910	5.489732	5.489732
O	1.829910	5.489732	3.659822
O	0.000000	5.489732	5.489732
O	1.829910	3.659822	5.489732
Re	0.000000	3.659822	3.659822
Co	5.489732	1.829910	1.829910
O	5.489732	1.829910	0.000000
O	3.659822	1.829910	1.829910
O	5.489732	0.000000	1.829910
Re	3.659822	0.000000	0.000000
Co	5.489732	1.829910	5.489732
O	5.489732	1.829910	3.659822
O	3.659822	1.829910	5.489732
O	5.489732	0.000000	5.489732
Re	3.659822	0.000000	3.659822
Co	5.489732	5.489732	1.829910
O	5.489732	5.489732	0.000000
O	3.659822	5.489732	1.829910
O	5.489732	3.659822	1.829910
Re	3.659822	3.659822	0.000000
Co	5.489732	5.489732	5.489732
O	5.489732	5.489732	3.659822
O	3.659822	5.489732	5.489732
O	5.489732	3.659822	5.489732
Re	3.659822	3.659822	3.659822
