40

Co	1.829512	1.829512	1.829512
O	1.829512	1.829512	0.000000
O	1.829512	0.000000	1.829512
O	0.000000	1.829512	1.829512
Re	0.000000	0.000000	0.000000
Co	1.829512	1.829512	5.488535
O	1.829512	1.829512	3.659023
O	1.829512	0.000000	5.488535
O	0.000000	1.829512	5.488535
Re	0.000000	0.000000	3.659023
Co	1.829512	5.488535	1.829512
O	1.829512	5.488535	0.000000
O	1.829512	3.659023	1.829512
O	0.000000	5.488535	1.829512
Re	0.000000	3.659023	0.000000
Co	1.829512	5.488535	5.488535
O	1.829512	5.488535	3.659023
O	1.829512	3.659023	5.488535
O	0.000000	5.488535	5.488535
Re	0.000000	3.659023	3.659023
Co	5.488535	1.829512	1.829512
O	5.488535	1.829512	0.000000
O	5.488535	0.000000	1.829512
O	3.659023	1.829512	1.829512
Re	3.659023	0.000000	0.000000
Co	5.488535	1.829512	5.488535
O	5.488535	1.829512	3.659023
O	5.488535	0.000000	5.488535
O	3.659023	1.829512	5.488535
Re	3.659023	0.000000	3.659023
Co	5.488535	5.488535	1.829512
O	5.488535	5.488535	0.000000
O	5.488535	3.659023	1.829512
O	3.659023	5.488535	1.829512
Re	3.659023	3.659023	0.000000
Co	5.488535	5.488535	5.488535
O	5.488535	5.488535	3.659023
O	5.488535	3.659023	5.488535
O	3.659023	5.488535	5.488535
Re	3.659023	3.659023	3.659023
