40

Cu	1.868680	1.868680	1.868680
Mn	0.000000	0.000000	0.000000
O	1.868680	1.868680	0.000000
O	1.868680	0.000000	1.868680
O	0.000000	1.868680	1.868680
Cu	1.868680	1.868680	5.606039
Mn	0.000000	0.000000	3.737359
O	1.868680	1.868680	3.737359
O	1.868680	0.000000	5.606039
O	0.000000	1.868680	5.606039
Cu	1.868680	5.606039	1.868680
Mn	0.000000	3.737359	0.000000
O	1.868680	5.606039	0.000000
O	1.868680	3.737359	1.868680
O	0.000000	5.606039	1.868680
Cu	1.868680	5.606039	5.606039
Mn	0.000000	3.737359	3.737359
O	1.868680	5.606039	3.737359
O	1.868680	3.737359	5.606039
O	0.000000	5.606039	5.606039
Cu	5.606039	1.868680	1.868680
Mn	3.737359	0.000000	0.000000
O	5.606039	1.868680	0.000000
O	5.606039	0.000000	1.868680
O	3.737359	1.868680	1.868680
Cu	5.606039	1.868680	5.606039
Mn	3.737359	0.000000	3.737359
O	5.606039	1.868680	3.737359
O	5.606039	0.000000	5.606039
O	3.737359	1.868680	5.606039
Cu	5.606039	5.606039	1.868680
Mn	3.737359	3.737359	0.000000
O	5.606039	5.606039	0.000000
O	5.606039	3.737359	1.868680
O	3.737359	5.606039	1.868680
Cu	5.606039	5.606039	5.606039
Mn	3.737359	3.737359	3.737359
O	5.606039	5.606039	3.737359
O	5.606039	3.737359	5.606039
O	3.737359	5.606039	5.606039
