112

Ca	0.000000	0.000000	0.000000
Ca	2.373019	-2.373416	-2.373416
Er	-1.186509	-1.186713	-3.560129
Er	5.932537	-1.186713	-1.186713
Er	1.186509	1.186713	-3.560129
Er	3.559528	1.186713	-1.186713
O	3.681560	-1.064188	-1.064188
O	-1.064468	1.064188	-3.682653
O	1.064468	-1.064188	-3.682653
O	1.308551	1.309238	-1.309238
O	5.810505	1.064188	-1.064188
O	1.308551	3.437604	-3.437604
O	3.437486	1.309238	-3.437604
O	3.437486	3.437604	-1.309238
Ca	4.746034	4.746841	0.000000
Ca	7.119052	2.373425	-2.373416
Er	3.559524	3.560128	-3.560129
Er	10.678571	3.560128	-1.186713
Er	5.932543	5.933554	-3.560129
Er	8.305562	5.933553	-1.186713
O	8.427594	3.682652	-1.064188
O	3.681566	5.811029	-3.682653
O	5.810501	3.682652	-3.682653
O	6.054585	6.056078	-1.309238
O	10.556539	5.811029	-1.064188
O	6.054585	8.184445	-3.437604
O	8.183520	6.056078	-3.437604
O	8.183520	8.184445	-1.309238
Ca	-4.746034	0.000000	-4.746841
Ca	-2.373015	-2.373416	-7.120256
Er	-5.932543	-1.186713	-8.306969
Er	1.186504	-1.186713	-5.933554
Er	-3.559524	1.186713	-8.306969
Er	-1.186505	1.186713	-5.933554
O	-1.064473	-1.064188	-5.811029
O	-5.810501	1.064188	-8.429494
O	-3.681566	-1.064188	-8.429494
O	-3.437482	1.309238	-6.056078
O	1.064472	1.064188	-5.811029
O	-3.437482	3.437604	-8.184445
O	-1.308547	1.309238	-8.184445
O	-1.308547	3.437604	-6.056078
Ca	0.000000	4.746841	-4.746841
Ca	2.373019	2.373425	-7.120256
Er	-1.186509	3.560128	-8.306969
Er	5.932537	3.560128	-5.933554
Er	1.186509	5.933554	-8.306969
Er	3.559528	5.933553	-5.933554
O	3.681560	3.682652	-5.811029
O	-1.064468	5.811029	-8.429494
O	1.064468	3.682652	-8.429494
O	1.308551	6.056078	-6.056078
O	5.810505	5.811029	-5.811029
O	1.308551	8.184445	-8.184445
O	3.437486	6.056078	-8.184445
O	3.437486	8.184445	-6.056078
Ca	4.746034	-4.746841	0.000000
Ca	7.119052	-7.120256	-2.373416
Er	3.559524	-5.933554	-3.560129
Er	10.678571	-5.933553	-1.186713
Er	5.932543	-3.560128	-3.560129
Er	8.305562	-3.560128	-1.186713
O	8.427594	-5.811029	-1.064188
O	3.681566	-3.682652	-3.682653
O	5.810501	-5.811029	-3.682653
O	6.054585	-3.437603	-1.309238
O	10.556539	-3.682652	-1.064188
O	6.054585	-1.309237	-3.437604
O	8.183520	-3.437603	-3.437604
O	8.183520	-1.309237	-1.309238
Ca	9.492067	0.000000	0.000000
Ca	11.865086	-2.373416	-2.373416
Er	8.305558	-1.186713	-3.560129
Er	15.424604	-1.186713	-1.186713
Er	10.678576	1.186713	-3.560129
Er	13.051595	1.186713	-1.186713
O	13.173627	-1.064188	-1.064188
O	8.427599	1.064188	-3.682653
O	10.556535	-1.064188	-3.682653
O	10.800618	1.309238	-1.309238
O	15.302572	1.064188	-1.064188
O	10.800618	3.437604	-3.437604
O	12.929553	1.309238	-3.437604
O	12.929553	3.437604	-1.309238
Ca	0.000000	-4.746841	-4.746841
Ca	2.373019	-7.120256	-7.120256
Er	-1.186509	-5.933554	-8.306969
Er	5.932537	-5.933553	-5.933554
Er	1.186509	-3.560128	-8.306969
Er	3.559528	-3.560128	-5.933554
O	3.681560	-5.811029	-5.811029
O	-1.064468	-3.682652	-8.429494
O	1.064468	-5.811029	-8.429494
O	1.308551	-3.437603	-6.056078
O	5.810505	-3.682652	-5.811029
O	1.308551	-1.309237	-8.184445
O	3.437486	-3.437603	-8.184445
O	3.437486	-1.309237	-6.056078
Ca	4.746034	0.000000	-4.746841
Ca	7.119052	-2.373416	-7.120256
Er	3.559524	-1.186713	-8.306969
Er	10.678571	-1.186713	-5.933554
Er	5.932543	1.186713	-8.306969
Er	8.305562	1.186713	-5.933554
O	8.427594	-1.064188	-5.811029
O	3.681566	1.064188	-8.429494
O	5.810501	-1.064188	-8.429494
O	6.054585	1.309238	-6.056078
O	10.556539	1.064188	-5.811029
O	6.054585	3.437604	-8.184445
O	8.183520	1.309238	-8.184445
O	8.183520	3.437604	-6.056078
