40

Cd	0.000000	0.000000	0.000000
Nb	2.015161	2.015161	2.015161
O	0.000000	2.015161	2.015161
O	2.015161	0.000000	2.015161
O	2.015161	2.015161	0.000000
Cd	0.000000	0.000000	4.030321
Nb	2.015161	2.015161	6.045482
O	0.000000	2.015161	6.045482
O	2.015161	0.000000	6.045482
O	2.015161	2.015161	4.030321
Cd	0.000000	4.030321	0.000000
Nb	2.015161	6.045482	2.015161
O	0.000000	6.045482	2.015161
O	2.015161	4.030321	2.015161
O	2.015161	6.045482	0.000000
Cd	0.000000	4.030321	4.030321
Nb	2.015161	6.045482	6.045482
O	0.000000	6.045482	6.045482
O	2.015161	4.030321	6.045482
O	2.015161	6.045482	4.030321
Cd	4.030321	0.000000	0.000000
Nb	6.045482	2.015161	2.015161
O	4.030321	2.015161	2.015161
O	6.045482	0.000000	2.015161
O	6.045482	2.015161	0.000000
Cd	4.030321	0.000000	4.030321
Nb	6.045482	2.015161	6.045482
O	4.030321	2.015161	6.045482
O	6.045482	0.000000	6.045482
O	6.045482	2.015161	4.030321
Cd	4.030321	4.030321	0.000000
Nb	6.045482	6.045482	2.015161
O	4.030321	6.045482	2.015161
O	6.045482	4.030321	2.015161
O	6.045482	6.045482	0.000000
Cd	4.030321	4.030321	4.030321
Nb	6.045482	6.045482	6.045482
O	4.030321	6.045482	6.045482
O	6.045482	4.030321	6.045482
O	6.045482	6.045482	4.030321
