112

Bi	0.000000	0.000000	0.000000
Bi	2.557250	-2.558021	-2.558021
O	4.008700	-1.106034	-1.106034
O	-1.105800	1.106034	-4.009998
O	1.105800	-1.106034	-4.009998
O	1.451450	1.451977	-1.451977
O	6.220311	1.106034	-1.106034
O	1.451450	3.664055	-3.664055
O	3.663050	3.664055	-1.451977
O	3.663050	1.451977	-3.664055
U	-1.278630	-1.279011	-3.837022
U	6.393130	-1.279011	-1.279011
U	1.278630	1.279011	-3.837022
U	3.835880	1.279011	-1.279011
Bi	5.114504	5.116033	0.000000
Bi	7.671754	2.558011	-2.558021
O	9.123204	4.009998	-1.106034
O	4.008703	6.222067	-4.009998
O	6.220304	4.009998	-4.009998
O	6.565954	6.568010	-1.451977
O	11.334814	6.222067	-1.106034
O	6.565954	8.780088	-3.664055
O	8.777554	8.780088	-1.451977
O	8.777554	6.568010	-3.664055
U	3.835874	3.837022	-3.837022
U	11.507634	3.837022	-1.279011
U	6.393134	6.395043	-3.837022
U	8.950384	6.395043	-1.279011
Bi	-5.114504	0.000000	-5.116033
Bi	-2.557254	-2.558021	-7.674054
O	-1.105804	-1.106034	-6.222067
O	-6.220304	1.106034	-9.126031
O	-4.008703	-1.106034	-9.126031
O	-3.663054	1.451977	-6.568010
O	1.105807	1.106034	-6.222067
O	-3.663054	3.664055	-8.780088
O	-1.451453	3.664055	-6.568010
O	-1.451453	1.451977	-8.780088
U	-6.393134	-1.279011	-8.953055
U	1.278626	-1.279011	-6.395043
U	-3.835874	1.279011	-8.953055
U	-1.278624	1.279011	-6.395043
Bi	0.000000	5.116033	-5.116033
Bi	2.557250	2.558011	-7.674054
O	4.008700	4.009998	-6.222067
O	-1.105800	6.222067	-9.126031
O	1.105800	4.009998	-9.126031
O	1.451450	6.568010	-6.568010
O	6.220311	6.222067	-6.222067
O	1.451450	8.780088	-8.780088
O	3.663050	8.780088	-6.568010
O	3.663050	6.568010	-8.780088
U	-1.278630	3.837022	-8.953055
U	6.393130	3.837022	-6.395043
U	1.278630	6.395043	-8.953055
U	3.835880	6.395043	-6.395043
Bi	5.114504	-5.116033	0.000000
Bi	7.671754	-7.674054	-2.558021
O	9.123204	-6.222067	-1.106034
O	4.008703	-4.009998	-4.009998
O	6.220304	-6.222067	-4.009998
O	6.565954	-3.664056	-1.451977
O	11.334814	-4.009998	-1.106034
O	6.565954	-1.451977	-3.664055
O	8.777554	-1.451977	-1.451977
O	8.777554	-3.664056	-3.664055
U	3.835874	-6.395043	-3.837022
U	11.507634	-6.395043	-1.279011
U	6.393134	-3.837022	-3.837022
U	8.950384	-3.837022	-1.279011
Bi	10.229008	0.000000	0.000000
Bi	12.786258	-2.558021	-2.558021
O	14.237707	-1.106034	-1.106034
O	9.123207	1.106034	-4.009998
O	11.334808	-1.106034	-4.009998
O	11.680457	1.451977	-1.451977
O	16.449318	1.106034	-1.106034
O	11.680457	3.664055	-3.664055
O	13.892058	3.664055	-1.451977
O	13.892058	1.451977	-3.664055
U	8.950377	-1.279011	-3.837022
U	16.622138	-1.279011	-1.279011
U	11.507638	1.279011	-3.837022
U	14.064888	1.279011	-1.279011
Bi	0.000000	-5.116033	-5.116033
Bi	2.557250	-7.674054	-7.674054
O	4.008700	-6.222067	-6.222067
O	-1.105800	-4.009998	-9.126031
O	1.105800	-6.222067	-9.126031
O	1.451450	-3.664056	-6.568010
O	6.220311	-4.009998	-6.222067
O	1.451450	-1.451977	-8.780088
O	3.663050	-1.451977	-6.568010
O	3.663050	-3.664056	-8.780088
U	-1.278630	-6.395043	-8.953055
U	6.393130	-6.395043	-6.395043
U	1.278630	-3.837022	-8.953055
U	3.835880	-3.837022	-6.395043
Bi	5.114504	0.000000	-5.116033
Bi	7.671754	-2.558021	-7.674054
O	9.123204	-1.106034	-6.222067
O	4.008703	1.106034	-9.126031
O	6.220304	-1.106034	-9.126031
O	6.565954	1.451977	-6.568010
O	11.334814	1.106034	-6.222067
O	6.565954	3.664055	-8.780088
O	8.777554	3.664055	-6.568010
O	8.777554	1.451977	-8.780088
U	3.835874	-1.279011	-8.953055
U	11.507634	-1.279011	-6.395043
U	6.393134	1.279011	-8.953055
U	8.950384	1.279011	-6.395043
