112

Mo	0.000000	0.000000	0.000000
Mo	2.506693	-2.506600	-2.506600
O	3.540104	-1.472890	-1.472890
O	-1.473281	1.472890	-3.540310
O	1.473281	-1.472890	-3.540310
O	1.033411	1.033710	-1.033710
O	6.486666	1.472890	-1.472890
O	1.033411	3.979491	-3.979491
O	3.979974	3.979491	-1.033710
O	3.979974	1.033710	-3.979491
Tl	-1.253346	-1.253300	-3.759901
Tl	3.760039	1.253300	-1.253300
Tl	6.266731	-1.253300	-1.253300
Tl	1.253346	1.253300	-3.759901
Mo	5.013385	5.013201	0.000000
Mo	7.520078	2.506600	-2.506600
O	8.553489	3.540311	-1.472890
O	3.540104	6.486091	-3.540310
O	6.486666	3.540311	-3.540310
O	6.046796	6.046911	-1.033710
O	11.500051	6.486091	-1.472890
O	6.046796	8.992691	-3.979491
O	8.993359	8.992691	-1.033710
O	8.993359	6.046911	-3.979491
Tl	3.760039	3.759901	-3.759901
Tl	8.773424	6.266501	-1.253300
Tl	11.280116	3.759901	-1.253300
Tl	6.266731	6.266501	-3.759901
Mo	-5.013385	0.000000	-5.013201
Mo	-2.506693	-2.506600	-7.519801
O	-1.473281	-1.472890	-6.486091
O	-6.486666	1.472890	-8.553511
O	-3.540104	-1.472890	-8.553511
O	-3.979974	1.033710	-6.046911
O	1.473281	1.472890	-6.486091
O	-3.979974	3.979491	-8.992691
O	-1.033411	3.979491	-6.046911
O	-1.033411	1.033710	-8.992691
Tl	-6.266731	-1.253300	-8.773101
Tl	-1.253346	1.253300	-6.266501
Tl	1.253346	-1.253300	-6.266501
Tl	-3.760039	1.253300	-8.773101
Mo	0.000000	5.013201	-5.013201
Mo	2.506693	2.506600	-7.519801
O	3.540104	3.540311	-6.486091
O	-1.473281	6.486091	-8.553511
O	1.473281	3.540311	-8.553511
O	1.033411	6.046911	-6.046911
O	6.486666	6.486091	-6.486091
O	1.033411	8.992691	-8.992691
O	3.979974	8.992691	-6.046911
O	3.979974	6.046911	-8.992691
Tl	-1.253346	3.759901	-8.773101
Tl	3.760039	6.266501	-6.266501
Tl	6.266731	3.759901	-6.266501
Tl	1.253346	6.266501	-8.773101
Mo	5.013385	-5.013201	0.000000
Mo	7.520078	-7.519801	-2.506600
O	8.553489	-6.486091	-1.472890
O	3.540104	-3.540310	-3.540310
O	6.486666	-6.486091	-3.540310
O	6.046796	-3.979491	-1.033710
O	11.500051	-3.540310	-1.472890
O	6.046796	-1.033710	-3.979491
O	8.993359	-1.033710	-1.033710
O	8.993359	-3.979491	-3.979491
Tl	3.760039	-6.266501	-3.759901
Tl	8.773424	-3.759901	-1.253300
Tl	11.280116	-6.266501	-1.253300
Tl	6.266731	-3.759901	-3.759901
Mo	10.026770	0.000000	0.000000
Mo	12.533463	-2.506600	-2.506600
O	13.566874	-1.472890	-1.472890
O	8.553489	1.472890	-3.540310
O	11.500051	-1.472890	-3.540310
O	11.060181	1.033710	-1.033710
O	16.513436	1.472890	-1.472890
O	11.060181	3.979491	-3.979491
O	14.006744	3.979491	-1.033710
O	14.006744	1.033710	-3.979491
Tl	8.773424	-1.253300	-3.759901
Tl	13.786809	1.253300	-1.253300
Tl	16.293501	-1.253300	-1.253300
Tl	11.280116	1.253300	-3.759901
Mo	0.000000	-5.013201	-5.013201
Mo	2.506693	-7.519801	-7.519801
O	3.540104	-6.486091	-6.486091
O	-1.473281	-3.540310	-8.553511
O	1.473281	-6.486091	-8.553511
O	1.033411	-3.979491	-6.046911
O	6.486666	-3.540310	-6.486091
O	1.033411	-1.033710	-8.992691
O	3.979974	-1.033710	-6.046911
O	3.979974	-3.979491	-8.992691
Tl	-1.253346	-6.266501	-8.773101
Tl	3.760039	-3.759901	-6.266501
Tl	6.266731	-6.266501	-6.266501
Tl	1.253346	-3.759901	-8.773101
Mo	5.013385	0.000000	-5.013201
Mo	7.520078	-2.506600	-7.519801
O	8.553489	-1.472890	-6.486091
O	3.540104	1.472890	-8.553511
O	6.486666	-1.472890	-8.553511
O	6.046796	1.033710	-6.046911
O	11.500051	1.472890	-6.486091
O	6.046796	3.979491	-8.992691
O	8.993359	3.979491	-6.046911
O	8.993359	1.033710	-8.992691
Tl	3.760039	-1.253300	-8.773101
Tl	8.773424	1.253300	-6.266501
Tl	11.280116	-1.253300	-6.266501
Tl	6.266731	1.253300	-8.773101
