40

O	1.895785	1.895785	0.000000
O	1.895785	0.000000	1.895785
O	0.000000	1.895785	1.895785
Pd	0.000000	0.000000	0.000000
V	1.895785	1.895785	1.895785
O	1.895785	1.895785	3.791570
O	1.895785	0.000000	5.687355
O	0.000000	1.895785	5.687355
Pd	0.000000	0.000000	3.791570
V	1.895785	1.895785	5.687355
O	1.895785	5.687355	0.000000
O	1.895785	3.791570	1.895785
O	0.000000	5.687355	1.895785
Pd	0.000000	3.791570	0.000000
V	1.895785	5.687355	1.895785
O	1.895785	5.687355	3.791570
O	1.895785	3.791570	5.687355
O	0.000000	5.687355	5.687355
Pd	0.000000	3.791570	3.791570
V	1.895785	5.687355	5.687355
O	5.687355	1.895785	0.000000
O	5.687355	0.000000	1.895785
O	3.791570	1.895785	1.895785
Pd	3.791570	0.000000	0.000000
V	5.687355	1.895785	1.895785
O	5.687355	1.895785	3.791570
O	5.687355	0.000000	5.687355
O	3.791570	1.895785	5.687355
Pd	3.791570	0.000000	3.791570
V	5.687355	1.895785	5.687355
O	5.687355	5.687355	0.000000
O	5.687355	3.791570	1.895785
O	3.791570	5.687355	1.895785
Pd	3.791570	3.791570	0.000000
V	5.687355	5.687355	1.895785
O	5.687355	5.687355	3.791570
O	5.687355	3.791570	5.687355
O	3.791570	5.687355	5.687355
Pd	3.791570	3.791570	3.791570
V	5.687355	5.687355	5.687355
