40

O	1.876910	1.876910	0.000000
O	0.000000	1.876910	1.876910
O	1.876910	0.000000	1.876910
Pd	0.000000	0.000000	0.000000
V	1.876910	1.876910	1.876910
O	1.876910	1.876910	3.753806
O	0.000000	1.876910	5.630716
O	1.876910	0.000000	5.630716
Pd	0.000000	0.000000	3.753806
V	1.876910	1.876910	5.630716
O	1.876910	5.630716	0.000000
O	0.000000	5.630716	1.876910
O	1.876910	3.753806	1.876910
Pd	0.000000	3.753806	0.000000
V	1.876910	5.630716	1.876910
O	1.876910	5.630716	3.753806
O	0.000000	5.630716	5.630716
O	1.876910	3.753806	5.630716
Pd	0.000000	3.753806	3.753806
V	1.876910	5.630716	5.630716
O	5.630716	1.876910	0.000000
O	3.753806	1.876910	1.876910
O	5.630716	0.000000	1.876910
Pd	3.753806	0.000000	0.000000
V	5.630716	1.876910	1.876910
O	5.630716	1.876910	3.753806
O	3.753806	1.876910	5.630716
O	5.630716	0.000000	5.630716
Pd	3.753806	0.000000	3.753806
V	5.630716	1.876910	5.630716
O	5.630716	5.630716	0.000000
O	3.753806	5.630716	1.876910
O	5.630716	3.753806	1.876910
Pd	3.753806	3.753806	0.000000
V	5.630716	5.630716	1.876910
O	5.630716	5.630716	3.753806
O	3.753806	5.630716	5.630716
O	5.630716	3.753806	5.630716
Pd	3.753806	3.753806	3.753806
V	5.630716	5.630716	5.630716
