40

O	0.000000	1.962989	1.962989
O	1.962989	0.000000	1.962989
O	1.962989	1.962989	0.000000
Pd	1.962989	1.962989	1.962989
V	0.000000	0.000000	0.000000
O	0.000000	1.962989	5.888967
O	1.962989	0.000000	5.888967
O	1.962989	1.962989	3.925978
Pd	1.962989	1.962989	5.888967
V	0.000000	0.000000	3.925978
O	0.000000	5.888967	1.962989
O	1.962989	3.925978	1.962989
O	1.962989	5.888967	0.000000
Pd	1.962989	5.888967	1.962989
V	0.000000	3.925978	0.000000
O	0.000000	5.888967	5.888967
O	1.962989	3.925978	5.888967
O	1.962989	5.888967	3.925978
Pd	1.962989	5.888967	5.888967
V	0.000000	3.925978	3.925978
O	3.925978	1.962989	1.962989
O	5.888967	0.000000	1.962989
O	5.888967	1.962989	0.000000
Pd	5.888967	1.962989	1.962989
V	3.925978	0.000000	0.000000
O	3.925978	1.962989	5.888967
O	5.888967	0.000000	5.888967
O	5.888967	1.962989	3.925978
Pd	5.888967	1.962989	5.888967
V	3.925978	0.000000	3.925978
O	3.925978	5.888967	1.962989
O	5.888967	3.925978	1.962989
O	5.888967	5.888967	0.000000
Pd	5.888967	5.888967	1.962989
V	3.925978	3.925978	0.000000
O	3.925978	5.888967	5.888967
O	5.888967	3.925978	5.888967
O	5.888967	5.888967	3.925978
Pd	5.888967	5.888967	5.888967
V	3.925978	3.925978	3.925978
