40

Ni	1.847734	1.847734	1.847734
O	0.000000	1.847734	1.847734
O	1.847734	0.000000	1.847734
O	1.847734	1.847734	0.000000
P	0.000000	0.000000	0.000000
Ni	1.847734	1.847734	5.543201
O	0.000000	1.847734	5.543201
O	1.847734	0.000000	5.543201
O	1.847734	1.847734	3.695468
P	0.000000	0.000000	3.695468
Ni	1.847734	5.543201	1.847734
O	0.000000	5.543201	1.847734
O	1.847734	3.695468	1.847734
O	1.847734	5.543201	0.000000
P	0.000000	3.695468	0.000000
Ni	1.847734	5.543201	5.543201
O	0.000000	5.543201	5.543201
O	1.847734	3.695468	5.543201
O	1.847734	5.543201	3.695468
P	0.000000	3.695468	3.695468
Ni	5.543201	1.847734	1.847734
O	3.695468	1.847734	1.847734
O	5.543201	0.000000	1.847734
O	5.543201	1.847734	0.000000
P	3.695468	0.000000	0.000000
Ni	5.543201	1.847734	5.543201
O	3.695468	1.847734	5.543201
O	5.543201	0.000000	5.543201
O	5.543201	1.847734	3.695468
P	3.695468	0.000000	3.695468
Ni	5.543201	5.543201	1.847734
O	3.695468	5.543201	1.847734
O	5.543201	3.695468	1.847734
O	5.543201	5.543201	0.000000
P	3.695468	3.695468	0.000000
Ni	5.543201	5.543201	5.543201
O	3.695468	5.543201	5.543201
O	5.543201	3.695468	5.543201
O	5.543201	5.543201	3.695468
P	3.695468	3.695468	3.695468
