40

Co	1.951780	1.951780	1.951780
K	0.000000	0.000000	0.000000
O	0.000000	1.951780	1.951780
O	1.951780	0.000000	1.951780
O	1.951780	1.951780	0.000000
Co	1.951780	1.951780	5.855341
K	0.000000	0.000000	3.903561
O	0.000000	1.951780	5.855341
O	1.951780	0.000000	5.855341
O	1.951780	1.951780	3.903561
Co	1.951780	5.855341	1.951780
K	0.000000	3.903561	0.000000
O	0.000000	5.855341	1.951780
O	1.951780	3.903561	1.951780
O	1.951780	5.855341	0.000000
Co	1.951780	5.855341	5.855341
K	0.000000	3.903561	3.903561
O	0.000000	5.855341	5.855341
O	1.951780	3.903561	5.855341
O	1.951780	5.855341	3.903561
Co	5.855341	1.951780	1.951780
K	3.903561	0.000000	0.000000
O	3.903561	1.951780	1.951780
O	5.855341	0.000000	1.951780
O	5.855341	1.951780	0.000000
Co	5.855341	1.951780	5.855341
K	3.903561	0.000000	3.903561
O	3.903561	1.951780	5.855341
O	5.855341	0.000000	5.855341
O	5.855341	1.951780	3.903561
Co	5.855341	5.855341	1.951780
K	3.903561	3.903561	0.000000
O	3.903561	5.855341	1.951780
O	5.855341	3.903561	1.951780
O	5.855341	5.855341	0.000000
Co	5.855341	5.855341	5.855341
K	3.903561	3.903561	3.903561
O	3.903561	5.855341	5.855341
O	5.855341	3.903561	5.855341
O	5.855341	5.855341	3.903561
