176

O	5.331449	3.769904	9.234341
O	3.198869	2.261942	5.540604
O	4.118339	5.485501	11.335509
O	1.985759	3.977539	7.641773
O	6.544559	2.054307	11.335509
O	7.757670	5.485501	9.234341
O	2.905228	2.054307	9.234341
O	4.118339	5.485501	7.133172
O	6.544559	2.054307	7.133172
O	5.625090	3.977539	5.540604
O	0.772649	0.546345	5.540604
O	4.411980	0.546345	3.439436
O	4.411980	0.546345	7.641773
O	1.985759	3.977539	3.439436
Sn	1.066290	3.015923	1.846868
Sn	3.198869	0.000000	1.846868
Sn	0.000000	0.000000	3.693736
Sn	0.000000	0.000000	0.000000
Er	3.198869	0.000000	5.540604
Er	1.066290	3.015923	5.540604
Er	4.265159	3.015923	3.693736
Er	4.265159	3.015923	7.387472
O	5.331449	3.769904	16.621813
O	3.198869	2.261942	12.928077
O	4.118339	5.485501	18.722982
O	1.985759	3.977539	15.029245
O	6.544559	2.054307	18.722982
O	7.757670	5.485501	16.621813
O	2.905228	2.054307	16.621813
O	4.118339	5.485501	14.520644
O	6.544559	2.054307	14.520644
O	5.625090	3.977539	12.928077
O	0.772649	0.546345	12.928077
O	4.411980	0.546345	10.826908
O	4.411980	0.546345	15.029245
O	1.985759	3.977539	10.826908
Sn	1.066290	3.015923	9.234341
Sn	3.198869	0.000000	9.234341
Sn	0.000000	0.000000	11.081209
Sn	0.000000	0.000000	7.387472
Er	3.198869	0.000000	12.928077
Er	1.066290	3.015923	12.928077
Er	4.265159	3.015923	11.081209
Er	4.265159	3.015923	14.774945
O	7.464029	9.801750	12.928077
O	5.331449	8.293788	9.234341
O	6.250918	11.517347	15.029245
O	4.118339	10.009385	11.335509
O	8.677139	8.086153	15.029245
O	9.890249	11.517347	12.928077
O	5.037808	8.086153	12.928077
O	6.250918	11.517347	10.826908
O	8.677139	8.086153	10.826908
O	7.757670	10.009385	9.234341
O	2.905228	6.578191	9.234341
O	6.544559	6.578191	7.133172
O	6.544559	6.578191	11.335509
O	4.118339	10.009385	7.133172
Sn	3.198869	9.047769	5.540604
Sn	5.331449	6.031846	5.540604
Sn	2.132580	6.031846	7.387472
Sn	2.132580	6.031846	3.693736
Er	5.331449	6.031846	9.234341
Er	3.198869	9.047769	9.234341
Er	6.397739	9.047769	7.387472
Er	6.397739	9.047769	11.081209
O	7.464029	9.801750	20.315549
O	5.331449	8.293788	16.621813
O	6.250918	11.517347	22.416718
O	4.118339	10.009385	18.722982
O	8.677139	8.086153	22.416718
O	9.890249	11.517347	20.315549
O	5.037808	8.086153	20.315549
O	6.250918	11.517347	18.214381
O	8.677139	8.086153	18.214381
O	7.757670	10.009385	16.621813
O	2.905228	6.578191	16.621813
O	6.544559	6.578191	14.520644
O	6.544559	6.578191	18.722982
O	4.118339	10.009385	14.520644
Sn	3.198869	9.047769	12.928077
Sn	5.331449	6.031846	12.928077
Sn	2.132580	6.031846	14.774945
Sn	2.132580	6.031846	11.081209
Er	5.331449	6.031846	16.621813
Er	3.198869	9.047769	16.621813
Er	6.397739	9.047769	14.774945
Er	6.397739	9.047769	18.468681
O	11.729188	3.769904	12.928077
O	9.596608	2.261942	9.234341
O	10.516078	5.485501	15.029245
O	8.383498	3.977539	11.335509
O	12.942298	2.054307	15.029245
O	14.155408	5.485501	12.928077
O	9.302967	2.054307	12.928077
O	10.516078	5.485501	10.826908
O	12.942298	2.054307	10.826908
O	12.022829	3.977539	9.234341
O	7.170388	0.546345	9.234341
O	10.809718	0.546345	7.133172
O	10.809718	0.546345	11.335509
O	8.383498	3.977539	7.133172
Sn	7.464029	3.015923	5.540604
Sn	9.596608	0.000000	5.540604
Sn	6.397739	0.000000	7.387472
Sn	6.397739	0.000000	3.693736
Er	9.596608	0.000000	9.234341
Er	7.464029	3.015923	9.234341
Er	10.662898	3.015923	7.387472
Er	10.662898	3.015923	11.081209
O	11.729188	3.769904	20.315549
O	9.596608	2.261942	16.621813
O	10.516078	5.485501	22.416718
O	8.383498	3.977539	18.722982
O	12.942298	2.054307	22.416718
O	14.155408	5.485501	20.315549
O	9.302967	2.054307	20.315549
O	10.516078	5.485501	18.214381
O	12.942298	2.054307	18.214381
O	12.022829	3.977539	16.621813
O	7.170388	0.546345	16.621813
O	10.809718	0.546345	14.520644
O	10.809718	0.546345	18.722982
O	8.383498	3.977539	14.520644
Sn	7.464029	3.015923	12.928077
Sn	9.596608	0.000000	12.928077
Sn	6.397739	0.000000	14.774945
Sn	6.397739	0.000000	11.081209
Er	9.596608	0.000000	16.621813
Er	7.464029	3.015923	16.621813
Er	10.662898	3.015923	14.774945
Er	10.662898	3.015923	18.468681
O	13.861767	9.801750	16.621813
O	11.729188	8.293788	12.928077
O	12.648657	11.517347	18.722982
O	10.516078	10.009385	15.029245
O	15.074878	8.086153	18.722982
O	16.287988	11.517347	16.621813
O	11.435547	8.086153	16.621813
O	12.648657	11.517347	14.520644
O	15.074878	8.086153	14.520644
O	14.155408	10.009385	12.928077
O	9.302967	6.578191	12.928077
O	12.942298	6.578191	10.826908
O	12.942298	6.578191	15.029245
O	10.516078	10.009385	10.826908
Sn	9.596608	9.047769	9.234341
Sn	11.729188	6.031846	9.234341
Sn	8.530318	6.031846	11.081209
Sn	8.530318	6.031846	7.387472
Er	11.729188	6.031846	12.928077
Er	9.596608	9.047769	12.928077
Er	12.795478	9.047769	11.081209
Er	12.795478	9.047769	14.774945
O	13.861767	9.801750	24.009285
O	11.729188	8.293788	20.315549
O	12.648657	11.517347	26.110454
O	10.516078	10.009385	22.416718
O	15.074878	8.086153	26.110454
O	16.287988	11.517347	24.009285
O	11.435547	8.086153	24.009285
O	12.648657	11.517347	21.908117
O	15.074878	8.086153	21.908117
O	14.155408	10.009385	20.315549
O	9.302967	6.578191	20.315549
O	12.942298	6.578191	18.214381
O	12.942298	6.578191	22.416718
O	10.516078	10.009385	18.214381
Sn	9.596608	9.047769	16.621813
Sn	11.729188	6.031846	16.621813
Sn	8.530318	6.031846	18.468681
Sn	8.530318	6.031846	14.774945
Er	11.729188	6.031846	20.315549
Er	9.596608	9.047769	20.315549
Er	12.795478	9.047769	18.468681
Er	12.795478	9.047769	22.162417
