40

As	0.000000	0.000000	0.000000
O	1.791730	0.000000	1.791730
O	0.000000	1.791730	1.791730
O	1.791730	1.791730	0.000000
Si	1.791730	1.791730	1.791730
As	0.000000	0.000000	3.583465
O	1.791730	0.000000	5.375195
O	0.000000	1.791730	5.375195
O	1.791730	1.791730	3.583465
Si	1.791730	1.791730	5.375195
As	0.000000	3.583465	0.000000
O	1.791730	3.583465	1.791730
O	0.000000	5.375195	1.791730
O	1.791730	5.375195	0.000000
Si	1.791730	5.375195	1.791730
As	0.000000	3.583465	3.583465
O	1.791730	3.583465	5.375195
O	0.000000	5.375195	5.375195
O	1.791730	5.375195	3.583465
Si	1.791730	5.375195	5.375195
As	3.583465	0.000000	0.000000
O	5.375195	0.000000	1.791730
O	3.583465	1.791730	1.791730
O	5.375195	1.791730	0.000000
Si	5.375195	1.791730	1.791730
As	3.583465	0.000000	3.583465
O	5.375195	0.000000	5.375195
O	3.583465	1.791730	5.375195
O	5.375195	1.791730	3.583465
Si	5.375195	1.791730	5.375195
As	3.583465	3.583465	0.000000
O	5.375195	3.583465	1.791730
O	3.583465	5.375195	1.791730
O	5.375195	5.375195	0.000000
Si	5.375195	5.375195	1.791730
As	3.583465	3.583465	3.583465
O	5.375195	3.583465	5.375195
O	3.583465	5.375195	5.375195
O	5.375195	5.375195	3.583465
Si	5.375195	5.375195	5.375195
