40

Co	0.000000	0.000000	0.000000
O	2.259932	2.259932	0.000000
O	2.259932	0.000000	2.259932
O	0.000000	2.259932	2.259932
Th	2.259932	2.259932	2.259932
Co	0.000000	0.000000	4.519865
O	2.259932	2.259932	4.519865
O	2.259932	0.000000	6.779797
O	0.000000	2.259932	6.779797
Th	2.259932	2.259932	6.779797
Co	0.000000	4.519865	0.000000
O	2.259932	6.779797	0.000000
O	2.259932	4.519865	2.259932
O	0.000000	6.779797	2.259932
Th	2.259932	6.779797	2.259932
Co	0.000000	4.519865	4.519865
O	2.259932	6.779797	4.519865
O	2.259932	4.519865	6.779797
O	0.000000	6.779797	6.779797
Th	2.259932	6.779797	6.779797
Co	4.519865	0.000000	0.000000
O	6.779797	2.259932	0.000000
O	6.779797	0.000000	2.259932
O	4.519865	2.259932	2.259932
Th	6.779797	2.259932	2.259932
Co	4.519865	0.000000	4.519865
O	6.779797	2.259932	4.519865
O	6.779797	0.000000	6.779797
O	4.519865	2.259932	6.779797
Th	6.779797	2.259932	6.779797
Co	4.519865	4.519865	0.000000
O	6.779797	6.779797	0.000000
O	6.779797	4.519865	2.259932
O	4.519865	6.779797	2.259932
Th	6.779797	6.779797	2.259932
Co	4.519865	4.519865	4.519865
O	6.779797	6.779797	4.519865
O	6.779797	4.519865	6.779797
O	4.519865	6.779797	6.779797
Th	6.779797	6.779797	6.779797
