144

K	-2.525072	2.525072	-2.525072
K	-5.050143	0.000000	0.000000
O	-1.949987	0.000000	0.000000
O	-5.050143	3.100156	0.000000
O	0.000000	0.000000	-1.949987
O	-2.525072	-2.525072	-0.575317
O	-0.575317	-2.525072	-2.525072
O	-2.525072	-0.575317	-2.525072
O	-5.050143	-3.100156	0.000000
O	-8.150299	0.000000	0.000000
O	-5.050143	0.000000	-3.100156
O	-2.525072	-4.474826	-2.525072
O	-4.474826	-2.525072	-2.525072
O	-2.525072	-2.525072	-4.474826
Os	-1.262526	-1.262526	-1.262526
Os	-3.787617	-3.787617	-1.262526
Os	-1.262526	-3.787617	-3.787617
Os	-3.787617	-1.262526	-3.787617
K	-7.575215	-2.525072	-2.525072
K	-10.100286	-5.050143	0.000000
O	-7.000130	-5.050143	0.000000
O	-10.100286	-1.949987	0.000000
O	-5.050143	-5.050143	-1.949987
O	-7.575215	-7.575215	-0.575317
O	-5.625460	-7.575215	-2.525072
O	-7.575215	-5.625460	-2.525072
O	-10.100286	-8.150299	0.000000
O	-13.200442	-5.050143	0.000000
O	-10.100286	-5.050143	-3.100156
O	-7.575215	-9.524969	-2.525072
O	-9.524969	-7.575215	-2.525072
O	-7.575215	-7.575215	-4.474826
Os	-6.312669	-6.312669	-1.262526
Os	-8.837760	-8.837760	-1.262526
Os	-6.312669	-8.837760	-3.787617
Os	-8.837760	-6.312669	-3.787617
K	2.525072	2.525072	-7.575215
K	0.000000	0.000000	-5.050143
O	3.100156	0.000000	-5.050143
O	0.000000	3.100156	-5.050143
O	5.050143	0.000000	-7.000130
O	2.525072	-2.525072	-5.625460
O	4.474826	-2.525072	-7.575215
O	2.525072	-0.575317	-7.575215
O	0.000000	-3.100156	-5.050143
O	-3.100156	0.000000	-5.050143
O	-0.000000	0.000000	-8.150299
O	2.525072	-4.474826	-7.575215
O	0.575317	-2.525072	-7.575215
O	2.525072	-2.525072	-9.524969
Os	3.787617	-1.262526	-6.312669
Os	1.262526	-3.787617	-6.312669
Os	3.787617	-3.787617	-8.837760
Os	1.262526	-1.262526	-8.837760
K	-2.525072	-2.525072	-7.575215
K	-5.050143	-5.050143	-5.050143
O	-1.949987	-5.050143	-5.050143
O	-5.050143	-1.949987	-5.050143
O	0.000000	-5.050143	-7.000130
O	-2.525072	-7.575215	-5.625460
O	-0.575317	-7.575215	-7.575215
O	-2.525072	-5.625460	-7.575215
O	-5.050143	-8.150299	-5.050143
O	-8.150299	-5.050143	-5.050143
O	-5.050143	-5.050143	-8.150299
O	-2.525072	-9.524969	-7.575215
O	-4.474826	-7.575215	-7.575215
O	-2.525072	-7.575215	-9.524969
Os	-1.262526	-6.312669	-6.312669
Os	-3.787617	-8.837760	-6.312669
Os	-1.262526	-8.837760	-8.837760
Os	-3.787617	-6.312669	-8.837760
K	-7.575215	7.575215	-2.525072
K	-10.100286	5.050143	0.000000
O	-7.000130	5.050143	0.000000
O	-10.100286	8.150299	0.000000
O	-5.050143	5.050143	-1.949987
O	-7.575215	2.525072	-0.575317
O	-5.625460	2.525072	-2.525072
O	-7.575215	4.474826	-2.525072
O	-10.100286	1.949987	0.000000
O	-13.200442	5.050143	0.000000
O	-10.100286	5.050143	-3.100156
O	-7.575215	0.575317	-2.525072
O	-9.524969	2.525072	-2.525072
O	-7.575215	2.525072	-4.474826
Os	-6.312669	3.787617	-1.262526
Os	-8.837760	1.262526	-1.262526
Os	-6.312669	1.262526	-3.787617
Os	-8.837760	3.787617	-3.787617
K	-12.625358	2.525072	-2.525072
K	-15.150429	0.000000	0.000000
O	-12.050273	0.000000	0.000000
O	-15.150429	3.100156	0.000000
O	-10.100286	0.000000	-1.949987
O	-12.625358	-2.525072	-0.575317
O	-10.675603	-2.525072	-2.525072
O	-12.625358	-0.575317	-2.525072
O	-15.150429	-3.100156	0.000000
O	-18.250585	0.000000	0.000000
O	-15.150429	0.000000	-3.100156
O	-12.625358	-4.474826	-2.525072
O	-14.575112	-2.525072	-2.525072
O	-12.625358	-2.525072	-4.474826
Os	-11.362813	-1.262526	-1.262526
Os	-13.887903	-3.787617	-1.262526
Os	-11.362812	-3.787617	-3.787617
Os	-13.887903	-1.262526	-3.787617
K	-2.525072	7.575215	-7.575215
K	-5.050143	5.050143	-5.050143
O	-1.949987	5.050143	-5.050143
O	-5.050143	8.150299	-5.050143
O	0.000000	5.050143	-7.000130
O	-2.525072	2.525072	-5.625460
O	-0.575317	2.525072	-7.575215
O	-2.525072	4.474826	-7.575215
O	-5.050143	1.949987	-5.050143
O	-8.150299	5.050143	-5.050143
O	-5.050143	5.050143	-8.150299
O	-2.525072	0.575317	-7.575215
O	-4.474826	2.525072	-7.575215
O	-2.525072	2.525072	-9.524969
Os	-1.262526	3.787617	-6.312669
Os	-3.787617	1.262526	-6.312669
Os	-1.262526	1.262526	-8.837760
Os	-3.787617	3.787617	-8.837760
K	-7.575215	2.525072	-7.575215
K	-10.100286	0.000000	-5.050143
O	-7.000130	0.000000	-5.050143
O	-10.100286	3.100156	-5.050143
O	-5.050143	0.000000	-7.000130
O	-7.575215	-2.525072	-5.625460
O	-5.625460	-2.525072	-7.575215
O	-7.575215	-0.575317	-7.575215
O	-10.100286	-3.100156	-5.050143
O	-13.200442	0.000000	-5.050143
O	-10.100286	0.000000	-8.150299
O	-7.575215	-4.474826	-7.575215
O	-9.524969	-2.525072	-7.575215
O	-7.575215	-2.525072	-9.524969
Os	-6.312669	-1.262526	-6.312669
Os	-8.837760	-3.787617	-6.312669
Os	-6.312669	-3.787617	-8.837760
Os	-8.837760	-1.262526	-8.837760
