112

Hf	0.000000	0.000000	0.000000
Hf	2.350518	-2.350181	-2.350181
Na	-1.175259	-1.175090	-3.525271
Na	3.525776	1.175090	-1.175090
Na	5.876294	-1.175090	-1.175090
Na	1.175259	1.175090	-3.525271
O	3.482864	-1.217790	-1.217790
O	-1.218171	1.217790	-3.482572
O	1.218171	-1.217790	-3.482572
O	1.132347	1.132391	-1.132391
O	5.919206	1.217790	-1.217790
O	1.132347	3.567971	-3.567971
O	3.568689	3.567971	-1.132391
O	3.568689	1.132391	-3.567971
Hf	4.701035	4.700361	0.000000
Hf	7.051553	2.350181	-2.350181
Na	3.525776	3.525271	-3.525271
Na	8.226812	5.875452	-1.175090
Na	10.577329	3.525271	-1.175090
Na	5.876294	5.875452	-3.525271
O	8.183900	3.482572	-1.217790
O	3.482864	5.918151	-3.482572
O	5.919206	3.482572	-3.482572
O	5.833382	5.832752	-1.132391
O	10.620242	5.918151	-1.217790
O	5.833382	8.268332	-3.567971
O	8.269724	8.268332	-1.132391
O	8.269724	5.832752	-3.567971
Hf	-4.701035	0.000000	-4.700361
Hf	-2.350518	-2.350181	-7.050542
Na	-5.876294	-1.175090	-8.225632
Na	-1.175259	1.175090	-5.875452
Na	1.175259	-1.175090	-5.875452
Na	-3.525776	1.175090	-8.225632
O	-1.218171	-1.217790	-5.918151
O	-5.919206	1.217790	-8.182933
O	-3.482864	-1.217790	-8.182933
O	-3.568689	1.132391	-5.832752
O	1.218171	1.217790	-5.918151
O	-3.568689	3.567971	-8.268332
O	-1.132347	3.567971	-5.832752
O	-1.132347	1.132391	-8.268332
Hf	0.000000	4.700361	-4.700361
Hf	2.350518	2.350181	-7.050542
Na	-1.175259	3.525271	-8.225632
Na	3.525776	5.875452	-5.875452
Na	5.876294	3.525271	-5.875452
Na	1.175259	5.875452	-8.225632
O	3.482864	3.482572	-5.918151
O	-1.218171	5.918151	-8.182933
O	1.218171	3.482572	-8.182933
O	1.132347	5.832752	-5.832752
O	5.919206	5.918151	-5.918151
O	1.132347	8.268332	-8.268332
O	3.568689	8.268332	-5.832752
O	3.568689	5.832752	-8.268332
Hf	4.701035	-4.700361	0.000000
Hf	7.051553	-7.050542	-2.350181
Na	3.525776	-5.875452	-3.525271
Na	8.226812	-3.525271	-1.175090
Na	10.577329	-5.875452	-1.175090
Na	5.876294	-3.525271	-3.525271
O	8.183900	-5.918151	-1.217790
O	3.482864	-3.482572	-3.482572
O	5.919206	-5.918151	-3.482572
O	5.833382	-3.567971	-1.132391
O	10.620242	-3.482572	-1.217790
O	5.833382	-1.132391	-3.567971
O	8.269724	-1.132391	-1.132391
O	8.269724	-3.567971	-3.567971
Hf	9.402071	0.000000	0.000000
Hf	11.752588	-2.350181	-2.350181
Na	8.226812	-1.175090	-3.525271
Na	12.927847	1.175090	-1.175090
Na	15.278365	-1.175090	-1.175090
Na	10.577329	1.175090	-3.525271
O	12.884935	-1.217790	-1.217790
O	8.183900	1.217790	-3.482572
O	10.620241	-1.217790	-3.482572
O	10.534417	1.132391	-1.132391
O	15.321277	1.217790	-1.217790
O	10.534417	3.567971	-3.567971
O	12.970759	3.567971	-1.132391
O	12.970759	1.132391	-3.567971
Hf	0.000000	-4.700361	-4.700361
Hf	2.350518	-7.050542	-7.050542
Na	-1.175259	-5.875452	-8.225632
Na	3.525776	-3.525271	-5.875452
Na	5.876294	-5.875452	-5.875452
Na	1.175259	-3.525271	-8.225632
O	3.482864	-5.918151	-5.918151
O	-1.218171	-3.482572	-8.182933
O	1.218171	-5.918151	-8.182933
O	1.132347	-3.567971	-5.832752
O	5.919206	-3.482572	-5.918151
O	1.132347	-1.132391	-8.268332
O	3.568689	-1.132391	-5.832752
O	3.568689	-3.567971	-8.268332
Hf	4.701035	0.000000	-4.700361
Hf	7.051553	-2.350181	-7.050542
Na	3.525776	-1.175090	-8.225632
Na	8.226812	1.175090	-5.875452
Na	10.577329	-1.175090	-5.875452
Na	5.876294	1.175090	-8.225632
O	8.183900	-1.217790	-5.918151
O	3.482864	1.217790	-8.182933
O	5.919206	-1.217790	-8.182933
O	5.833382	1.132391	-5.832752
O	10.620242	1.217790	-5.918151
O	5.833382	3.567971	-8.268332
O	8.269724	3.567971	-5.832752
O	8.269724	1.132391	-8.268332
