40

O	2.217194	2.217194	0.000000
O	2.217194	0.000000	2.217194
O	0.000000	2.217194	2.217194
Rh	0.000000	0.000000	0.000000
Sr	2.217194	2.217194	2.217194
O	2.217194	2.217194	4.434386
O	2.217194	0.000000	6.651579
O	0.000000	2.217194	6.651579
Rh	0.000000	0.000000	4.434386
Sr	2.217194	2.217194	6.651579
O	2.217194	6.651579	0.000000
O	2.217194	4.434386	2.217194
O	0.000000	6.651579	2.217194
Rh	0.000000	4.434386	0.000000
Sr	2.217194	6.651579	2.217194
O	2.217194	6.651579	4.434386
O	2.217194	4.434386	6.651579
O	0.000000	6.651579	6.651579
Rh	0.000000	4.434386	4.434386
Sr	2.217194	6.651579	6.651579
O	6.651579	2.217194	0.000000
O	6.651579	0.000000	2.217194
O	4.434386	2.217194	2.217194
Rh	4.434386	0.000000	0.000000
Sr	6.651579	2.217194	2.217194
O	6.651579	2.217194	4.434386
O	6.651579	0.000000	6.651579
O	4.434386	2.217194	6.651579
Rh	4.434386	0.000000	4.434386
Sr	6.651579	2.217194	6.651579
O	6.651579	6.651579	0.000000
O	6.651579	4.434386	2.217194
O	4.434386	6.651579	2.217194
Rh	4.434386	4.434386	0.000000
Sr	6.651579	6.651579	2.217194
O	6.651579	6.651579	4.434386
O	6.651579	4.434386	6.651579
O	4.434386	6.651579	6.651579
Rh	4.434386	4.434386	4.434386
Sr	6.651579	6.651579	6.651579
