144

Cs	3.824111	-1.274704	-1.274704
Cs	1.274704	1.274704	6.373519
O	1.274704	-0.664611	1.274704
O	1.274704	-3.824111	4.434204
O	4.434204	-3.824111	1.274704
O	1.884797	-1.274704	3.824111
O	3.824111	1.884797	-1.274704
O	3.824111	-1.274704	1.884797
O	1.274704	1.274704	3.214018
O	1.274704	-1.884797	6.373519
O	3.214018	1.274704	1.274704
O	0.664611	3.824111	3.824111
O	3.824111	3.824111	0.664611
O	3.824111	0.664611	3.824111
Os	0.000000	0.000000	0.000000
Os	0.000000	2.549408	2.549408
Os	2.549408	2.549408	0.000000
Os	2.549408	0.000000	2.549408
Cs	3.824111	3.824111	3.824111
Cs	1.274704	6.373519	11.472334
O	1.274704	4.434204	6.373519
O	1.274704	1.274704	9.533020
O	4.434204	1.274704	6.373519
O	1.884797	3.824111	8.922926
O	3.824111	6.983612	3.824111
O	3.824111	3.824111	6.983612
O	1.274704	6.373519	8.312833
O	1.274704	3.214018	11.472334
O	3.214018	6.373519	6.373519
O	0.664611	8.922926	8.922926
O	3.824111	8.922926	5.763426
O	3.824111	5.763426	8.922926
Os	0.000000	5.098815	5.098815
Os	0.000000	7.648223	7.648223
Os	2.549408	7.648223	5.098815
Os	2.549408	5.098815	7.648223
Cs	8.922926	-1.274704	-6.373519
Cs	6.373519	1.274704	1.274704
O	6.373519	-0.664611	-3.824111
O	6.373519	-3.824111	-0.664611
O	9.533020	-3.824111	-3.824111
O	6.983612	-1.274704	-1.274704
O	8.922926	1.884797	-6.373519
O	8.922926	-1.274704	-3.214018
O	6.373519	1.274704	-1.884797
O	6.373519	-1.884797	1.274704
O	8.312833	1.274704	-3.824111
O	5.763426	3.824111	-1.274704
O	8.922926	3.824111	-4.434204
O	8.922926	0.664611	-1.274704
Os	5.098815	0.000000	-5.098815
Os	5.098815	2.549408	-2.549408
Os	7.648223	2.549408	-5.098815
Os	7.648223	0.000000	-2.549408
Cs	8.922926	3.824111	-1.274704
Cs	6.373519	6.373519	6.373519
O	6.373519	4.434204	1.274704
O	6.373519	1.274704	4.434204
O	9.533020	1.274704	1.274704
O	6.983612	3.824111	3.824111
O	8.922926	6.983612	-1.274704
O	8.922926	3.824111	1.884797
O	6.373519	6.373519	3.214018
O	6.373519	3.214018	6.373519
O	8.312833	6.373519	1.274704
O	5.763426	8.922926	3.824111
O	8.922926	8.922926	0.664611
O	8.922926	5.763426	3.824111
Os	5.098815	5.098815	0.000000
Os	5.098815	7.648223	2.549408
Os	7.648223	7.648223	0.000000
Os	7.648223	5.098815	2.549408
Cs	3.824111	-6.373519	3.824111
Cs	1.274704	-3.824111	11.472334
O	1.274704	-5.763426	6.373519
O	1.274704	-8.922926	9.533020
O	4.434204	-8.922926	6.373519
O	1.884797	-6.373519	8.922926
O	3.824111	-3.214018	3.824111
O	3.824111	-6.373519	6.983612
O	1.274704	-3.824111	8.312833
O	1.274704	-6.983612	11.472334
O	3.214018	-3.824111	6.373519
O	0.664611	-1.274704	8.922926
O	3.824111	-1.274704	5.763426
O	3.824111	-4.434204	8.922926
Os	0.000000	-5.098815	5.098815
Os	0.000000	-2.549408	7.648223
Os	2.549408	-2.549408	5.098815
Os	2.549408	-5.098815	7.648223
Cs	3.824111	-1.274704	8.922926
Cs	1.274704	1.274704	16.571149
O	1.274704	-0.664611	11.472334
O	1.274704	-3.824111	14.631835
O	4.434204	-3.824111	11.472334
O	1.884797	-1.274704	14.021742
O	3.824111	1.884797	8.922926
O	3.824111	-1.274704	12.082427
O	1.274704	1.274704	13.411648
O	1.274704	-1.884797	16.571149
O	3.214018	1.274704	11.472334
O	0.664611	3.824111	14.021742
O	3.824111	3.824111	10.862241
O	3.824111	0.664611	14.021742
Os	0.000000	0.000000	10.197630
Os	0.000000	2.549408	12.747038
Os	2.549408	2.549408	10.197630
Os	2.549408	0.000000	12.747038
Cs	8.922926	-6.373519	-1.274704
Cs	6.373519	-3.824111	6.373519
O	6.373519	-5.763426	1.274704
O	6.373519	-8.922926	4.434204
O	9.533020	-8.922926	1.274704
O	6.983612	-6.373519	3.824111
O	8.922926	-3.214018	-1.274704
O	8.922926	-6.373519	1.884797
O	6.373519	-3.824111	3.214018
O	6.373519	-6.983612	6.373519
O	8.312833	-3.824111	1.274704
O	5.763426	-1.274704	3.824111
O	8.922926	-1.274704	0.664611
O	8.922926	-4.434204	3.824111
Os	5.098815	-5.098815	0.000000
Os	5.098815	-2.549408	2.549408
Os	7.648223	-2.549408	0.000000
Os	7.648223	-5.098815	2.549408
Cs	8.922926	-1.274704	3.824111
Cs	6.373519	1.274704	11.472334
O	6.373519	-0.664611	6.373519
O	6.373519	-3.824111	9.533020
O	9.533020	-3.824111	6.373519
O	6.983612	-1.274704	8.922926
O	8.922926	1.884797	3.824111
O	8.922926	-1.274704	6.983612
O	6.373519	1.274704	8.312833
O	6.373519	-1.884797	11.472334
O	8.312833	1.274704	6.373519
O	5.763426	3.824111	8.922926
O	8.922926	3.824111	5.763426
O	8.922926	0.664611	8.922926
Os	5.098815	0.000000	5.098815
Os	5.098815	2.549408	7.648223
Os	7.648223	2.549408	5.098815
Os	7.648223	0.000000	7.648223
