176

Er	-2.592661	0.000000	2.592661
Er	2.592661	-2.592661	0.000000
Er	5.185321	0.000000	0.000000
Er	0.000000	-2.592661	2.592661
Hf	0.000000	0.000000	0.000000
Hf	2.592661	2.592661	0.000000
Hf	0.000000	2.592661	2.592661
Hf	2.592661	0.000000	2.592661
O	3.888991	3.888991	0.939292
O	-1.296330	1.653369	3.888991
O	0.939292	3.888991	3.888991
O	1.296330	-0.939292	1.296330
O	3.531953	1.296330	1.296330
O	1.296330	1.296330	3.531953
O	-1.296330	-1.296330	3.888991
O	6.481652	1.296330	1.296330
O	3.888991	-1.296330	1.653369
O	1.653369	-1.296330	3.888991
O	3.888991	0.939292	3.888991
O	4.246029	-3.888991	1.296330
O	6.481652	-1.653369	1.296330
O	1.296330	-3.888991	4.246029
Er	2.592661	-5.185321	2.592661
Er	7.777982	-7.777982	0.000000
Er	10.370643	-5.185321	0.000000
Er	5.185321	-7.777982	2.592661
Hf	5.185321	-5.185321	0.000000
Hf	7.777982	-2.592661	0.000000
Hf	5.185321	-2.592661	2.592661
Hf	7.777982	-5.185321	2.592661
O	9.074313	-1.296330	0.939292
O	3.888991	-3.531953	3.888991
O	6.124614	-1.296330	3.888991
O	6.481652	-6.124614	1.296330
O	8.717274	-3.888991	1.296330
O	6.481652	-3.888991	3.531953
O	3.888991	-6.481652	3.888991
O	11.666973	-3.888991	1.296330
O	9.074313	-6.481652	1.653369
O	6.838690	-6.481652	3.888991
O	9.074313	-4.246029	3.888991
O	9.431351	-9.074313	1.296330
O	11.666973	-6.838690	1.296330
O	6.481652	-9.074313	4.246029
Er	-7.777982	0.000000	7.777982
Er	-2.592661	-2.592661	5.185321
Er	0.000000	0.000000	5.185321
Er	-5.185321	-2.592661	7.777982
Hf	-5.185321	0.000000	5.185321
Hf	-2.592661	2.592661	5.185321
Hf	-5.185321	2.592661	7.777982
Hf	-2.592661	0.000000	7.777982
O	-1.296330	3.888991	6.124614
O	-6.481652	1.653369	9.074313
O	-4.246029	3.888991	9.074313
O	-3.888991	-0.939292	6.481652
O	-1.653369	1.296330	6.481652
O	-3.888991	1.296330	8.717274
O	-6.481652	-1.296330	9.074313
O	1.296330	1.296330	6.481652
O	-1.296330	-1.296330	6.838690
O	-3.531953	-1.296330	9.074313
O	-1.296330	0.939292	9.074313
O	-0.939292	-3.888991	6.481652
O	1.296330	-1.653369	6.481652
O	-3.888991	-3.888991	9.431351
Er	-2.592661	-5.185321	7.777982
Er	2.592661	-7.777982	5.185321
Er	5.185321	-5.185321	5.185321
Er	0.000000	-7.777982	7.777982
Hf	0.000000	-5.185321	5.185321
Hf	2.592661	-2.592661	5.185321
Hf	0.000000	-2.592661	7.777982
Hf	2.592661	-5.185321	7.777982
O	3.888991	-1.296330	6.124614
O	-1.296330	-3.531953	9.074313
O	0.939292	-1.296330	9.074313
O	1.296330	-6.124614	6.481652
O	3.531953	-3.888991	6.481652
O	1.296330	-3.888991	8.717274
O	-1.296330	-6.481652	9.074313
O	6.481652	-3.888991	6.481652
O	3.888991	-6.481652	6.838690
O	1.653369	-6.481652	9.074313
O	3.888991	-4.246029	9.074313
O	4.246029	-9.074313	6.481652
O	6.481652	-6.838690	6.481652
O	1.296330	-9.074313	9.431351
Er	2.592661	5.185321	2.592661
Er	7.777982	2.592661	0.000000
Er	10.370643	5.185321	0.000000
Er	5.185321	2.592661	2.592661
Hf	5.185321	5.185321	0.000000
Hf	7.777982	7.777982	0.000000
Hf	5.185321	7.777982	2.592661
Hf	7.777982	5.185321	2.592661
O	9.074313	9.074313	0.939292
O	3.888991	6.838690	3.888991
O	6.124614	9.074313	3.888991
O	6.481652	4.246029	1.296330
O	8.717274	6.481652	1.296330
O	6.481652	6.481652	3.531953
O	3.888991	3.888991	3.888991
O	11.666973	6.481652	1.296330
O	9.074313	3.888991	1.653369
O	6.838690	3.888991	3.888991
O	9.074313	6.124614	3.888991
O	9.431351	1.296330	1.296330
O	11.666973	3.531953	1.296330
O	6.481652	1.296330	4.246029
Er	7.777982	0.000000	2.592661
Er	12.963304	-2.592661	0.000000
Er	15.555964	0.000000	0.000000
Er	10.370643	-2.592661	2.592661
Hf	10.370643	0.000000	0.000000
Hf	12.963304	2.592661	0.000000
Hf	10.370643	2.592661	2.592661
Hf	12.963304	0.000000	2.592661
O	14.259634	3.888991	0.939292
O	9.074313	1.653369	3.888991
O	11.309935	3.888991	3.888991
O	11.666973	-0.939292	1.296330
O	13.902596	1.296330	1.296330
O	11.666973	1.296330	3.531953
O	9.074313	-1.296330	3.888991
O	16.852295	1.296330	1.296330
O	14.259634	-1.296330	1.653369
O	12.024012	-1.296330	3.888991
O	14.259634	0.939292	3.888991
O	14.616672	-3.888991	1.296330
O	16.852295	-1.653369	1.296330
O	11.666973	-3.888991	4.246029
Er	-2.592661	5.185321	7.777982
Er	2.592661	2.592661	5.185321
Er	5.185321	5.185321	5.185321
Er	0.000000	2.592661	7.777982
Hf	0.000000	5.185321	5.185321
Hf	2.592661	7.777982	5.185321
Hf	0.000000	7.777982	7.777982
Hf	2.592661	5.185321	7.777982
O	3.888991	9.074313	6.124614
O	-1.296330	6.838690	9.074313
O	0.939292	9.074313	9.074313
O	1.296330	4.246029	6.481652
O	3.531953	6.481652	6.481652
O	1.296330	6.481652	8.717274
O	-1.296330	3.888991	9.074313
O	6.481652	6.481652	6.481652
O	3.888991	3.888991	6.838690
O	1.653369	3.888991	9.074313
O	3.888991	6.124614	9.074313
O	4.246029	1.296330	6.481652
O	6.481652	3.531953	6.481652
O	1.296330	1.296330	9.431351
Er	2.592661	0.000000	7.777982
Er	7.777982	-2.592661	5.185321
Er	10.370643	0.000000	5.185321
Er	5.185321	-2.592661	7.777982
Hf	5.185321	0.000000	5.185321
Hf	7.777982	2.592661	5.185321
Hf	5.185321	2.592661	7.777982
Hf	7.777982	0.000000	7.777982
O	9.074313	3.888991	6.124614
O	3.888991	1.653369	9.074313
O	6.124614	3.888991	9.074313
O	6.481652	-0.939292	6.481652
O	8.717274	1.296330	6.481652
O	6.481652	1.296330	8.717274
O	3.888991	-1.296330	9.074313
O	11.666973	1.296330	6.481652
O	9.074313	-1.296330	6.838690
O	6.838690	-1.296330	9.074313
O	9.074313	0.939292	9.074313
O	9.431351	-3.888991	6.481652
O	11.666973	-1.653369	6.481652
O	6.481652	-3.888991	9.431351
