40

Nd	2.230500	2.230500	2.230500
O	2.230500	2.230500	0.000000
O	0.000000	2.230500	2.230500
O	2.230500	0.000000	2.230500
Sb	0.000000	0.000000	0.000000
Nd	2.230500	2.230500	6.691505
O	2.230500	2.230500	4.461005
O	0.000000	2.230500	6.691505
O	2.230500	0.000000	6.691505
Sb	0.000000	0.000000	4.461005
Nd	2.230500	6.691505	2.230500
O	2.230500	6.691505	0.000000
O	0.000000	6.691505	2.230500
O	2.230500	4.461005	2.230500
Sb	0.000000	4.461005	0.000000
Nd	2.230500	6.691505	6.691505
O	2.230500	6.691505	4.461005
O	0.000000	6.691505	6.691505
O	2.230500	4.461005	6.691505
Sb	0.000000	4.461005	4.461005
Nd	6.691505	2.230500	2.230500
O	6.691505	2.230500	0.000000
O	4.461005	2.230500	2.230500
O	6.691505	0.000000	2.230500
Sb	4.461005	0.000000	0.000000
Nd	6.691505	2.230500	6.691505
O	6.691505	2.230500	4.461005
O	4.461005	2.230500	6.691505
O	6.691505	0.000000	6.691505
Sb	4.461005	0.000000	4.461005
Nd	6.691505	6.691505	2.230500
O	6.691505	6.691505	0.000000
O	4.461005	6.691505	2.230500
O	6.691505	4.461005	2.230500
Sb	4.461005	4.461005	0.000000
Nd	6.691505	6.691505	6.691505
O	6.691505	6.691505	4.461005
O	4.461005	6.691505	6.691505
O	6.691505	4.461005	6.691505
Sb	4.461005	4.461005	4.461005
