40

Ag	2.009607	2.009607	2.009607
As	0.000000	0.000000	0.000000
O	0.000000	2.009607	2.009607
O	2.009607	0.000000	2.009607
O	2.009607	2.009607	0.000000
Ag	2.009607	2.009607	6.028822
As	0.000000	0.000000	4.019215
O	0.000000	2.009607	6.028822
O	2.009607	0.000000	6.028822
O	2.009607	2.009607	4.019215
Ag	2.009607	6.028822	2.009607
As	0.000000	4.019215	0.000000
O	0.000000	6.028822	2.009607
O	2.009607	4.019215	2.009607
O	2.009607	6.028822	0.000000
Ag	2.009607	6.028822	6.028822
As	0.000000	4.019215	4.019215
O	0.000000	6.028822	6.028822
O	2.009607	4.019215	6.028822
O	2.009607	6.028822	4.019215
Ag	6.028822	2.009607	2.009607
As	4.019215	0.000000	0.000000
O	4.019215	2.009607	2.009607
O	6.028822	0.000000	2.009607
O	6.028822	2.009607	0.000000
Ag	6.028822	2.009607	6.028822
As	4.019215	0.000000	4.019215
O	4.019215	2.009607	6.028822
O	6.028822	0.000000	6.028822
O	6.028822	2.009607	4.019215
Ag	6.028822	6.028822	2.009607
As	4.019215	4.019215	0.000000
O	4.019215	6.028822	2.009607
O	6.028822	4.019215	2.009607
O	6.028822	6.028822	0.000000
Ag	6.028822	6.028822	6.028822
As	4.019215	4.019215	4.019215
O	4.019215	6.028822	6.028822
O	6.028822	4.019215	6.028822
O	6.028822	6.028822	4.019215
