40

Br	0.000000	0.000000	0.000000
O	0.000000	1.923566	1.923566
O	1.923566	0.000000	1.923566
O	1.923566	1.923566	0.000000
S	1.923566	1.923566	1.923566
Br	0.000000	0.000000	3.847132
O	0.000000	1.923566	5.770698
O	1.923566	0.000000	5.770698
O	1.923566	1.923566	3.847132
S	1.923566	1.923566	5.770698
Br	0.000000	3.847132	0.000000
O	0.000000	5.770698	1.923566
O	1.923566	3.847132	1.923566
O	1.923566	5.770698	0.000000
S	1.923566	5.770698	1.923566
Br	0.000000	3.847132	3.847132
O	0.000000	5.770698	5.770698
O	1.923566	3.847132	5.770698
O	1.923566	5.770698	3.847132
S	1.923566	5.770698	5.770698
Br	3.847132	0.000000	0.000000
O	3.847132	1.923566	1.923566
O	5.770698	0.000000	1.923566
O	5.770698	1.923566	0.000000
S	5.770698	1.923566	1.923566
Br	3.847132	0.000000	3.847132
O	3.847132	1.923566	5.770698
O	5.770698	0.000000	5.770698
O	5.770698	1.923566	3.847132
S	5.770698	1.923566	5.770698
Br	3.847132	3.847132	0.000000
O	3.847132	5.770698	1.923566
O	5.770698	3.847132	1.923566
O	5.770698	5.770698	0.000000
S	5.770698	5.770698	1.923566
Br	3.847132	3.847132	3.847132
O	3.847132	5.770698	5.770698
O	5.770698	3.847132	5.770698
O	5.770698	5.770698	3.847132
S	5.770698	5.770698	5.770698
