40

Cr	0.000000	0.000000	0.000000
O	0.000000	2.050807	2.050807
O	2.050807	0.000000	2.050807
O	2.050807	2.050807	0.000000
Sc	2.050807	2.050807	2.050807
Cr	0.000000	0.000000	4.101613
O	0.000000	2.050807	6.152420
O	2.050807	0.000000	6.152420
O	2.050807	2.050807	4.101613
Sc	2.050807	2.050807	6.152420
Cr	0.000000	4.101613	0.000000
O	0.000000	6.152420	2.050807
O	2.050807	4.101613	2.050807
O	2.050807	6.152420	0.000000
Sc	2.050807	6.152420	2.050807
Cr	0.000000	4.101613	4.101613
O	0.000000	6.152420	6.152420
O	2.050807	4.101613	6.152420
O	2.050807	6.152420	4.101613
Sc	2.050807	6.152420	6.152420
Cr	4.101613	0.000000	0.000000
O	4.101613	2.050807	2.050807
O	6.152420	0.000000	2.050807
O	6.152420	2.050807	0.000000
Sc	6.152420	2.050807	2.050807
Cr	4.101613	0.000000	4.101613
O	4.101613	2.050807	6.152420
O	6.152420	0.000000	6.152420
O	6.152420	2.050807	4.101613
Sc	6.152420	2.050807	6.152420
Cr	4.101613	4.101613	0.000000
O	4.101613	6.152420	2.050807
O	6.152420	4.101613	2.050807
O	6.152420	6.152420	0.000000
Sc	6.152420	6.152420	2.050807
Cr	4.101613	4.101613	4.101613
O	4.101613	6.152420	6.152420
O	6.152420	4.101613	6.152420
O	6.152420	6.152420	4.101613
Sc	6.152420	6.152420	6.152420
