40

Gd	0.000000	0.000000	0.000000
Li	1.829610	1.829610	1.829610
O	1.829610	0.000000	1.829610
O	0.000000	1.829610	1.829610
O	1.829610	1.829610	0.000000
Gd	0.000000	0.000000	3.659222
Li	1.829610	1.829610	5.488832
O	1.829610	0.000000	5.488832
O	0.000000	1.829610	5.488832
O	1.829610	1.829610	3.659222
Gd	0.000000	3.659222	0.000000
Li	1.829610	5.488832	1.829610
O	1.829610	3.659222	1.829610
O	0.000000	5.488832	1.829610
O	1.829610	5.488832	0.000000
Gd	0.000000	3.659222	3.659222
Li	1.829610	5.488832	5.488832
O	1.829610	3.659222	5.488832
O	0.000000	5.488832	5.488832
O	1.829610	5.488832	3.659222
Gd	3.659222	0.000000	0.000000
Li	5.488832	1.829610	1.829610
O	5.488832	0.000000	1.829610
O	3.659222	1.829610	1.829610
O	5.488832	1.829610	0.000000
Gd	3.659222	0.000000	3.659222
Li	5.488832	1.829610	5.488832
O	5.488832	0.000000	5.488832
O	3.659222	1.829610	5.488832
O	5.488832	1.829610	3.659222
Gd	3.659222	3.659222	0.000000
Li	5.488832	5.488832	1.829610
O	5.488832	3.659222	1.829610
O	3.659222	5.488832	1.829610
O	5.488832	5.488832	0.000000
Gd	3.659222	3.659222	3.659222
Li	5.488832	5.488832	5.488832
O	5.488832	3.659222	5.488832
O	3.659222	5.488832	5.488832
O	5.488832	5.488832	3.659222
