40

Np	2.202295	2.202295	2.202295
O	2.202295	2.202295	0.000000
O	2.202295	0.000000	2.202295
O	0.000000	2.202295	2.202295
Pb	0.000000	0.000000	0.000000
Np	2.202295	2.202295	6.606895
O	2.202295	2.202295	4.404601
O	2.202295	0.000000	6.606895
O	0.000000	2.202295	6.606895
Pb	0.000000	0.000000	4.404601
Np	2.202295	6.606895	2.202295
O	2.202295	6.606895	0.000000
O	2.202295	4.404601	2.202295
O	0.000000	6.606895	2.202295
Pb	0.000000	4.404601	0.000000
Np	2.202295	6.606895	6.606895
O	2.202295	6.606895	4.404601
O	2.202295	4.404601	6.606895
O	0.000000	6.606895	6.606895
Pb	0.000000	4.404601	4.404601
Np	6.606895	2.202295	2.202295
O	6.606895	2.202295	0.000000
O	6.606895	0.000000	2.202295
O	4.404601	2.202295	2.202295
Pb	4.404601	0.000000	0.000000
Np	6.606895	2.202295	6.606895
O	6.606895	2.202295	4.404601
O	6.606895	0.000000	6.606895
O	4.404601	2.202295	6.606895
Pb	4.404601	0.000000	4.404601
Np	6.606895	6.606895	2.202295
O	6.606895	6.606895	0.000000
O	6.606895	4.404601	2.202295
O	4.404601	6.606895	2.202295
Pb	4.404601	4.404601	0.000000
Np	6.606895	6.606895	6.606895
O	6.606895	6.606895	4.404601
O	6.606895	4.404601	6.606895
O	4.404601	6.606895	6.606895
Pb	4.404601	4.404601	4.404601
