40

Cr	0.000000	0.000000	0.000000
O	2.150700	2.150700	0.000000
O	0.000000	2.150700	2.150700
O	2.150700	0.000000	2.150700
Y_sv	2.150700	2.150700	2.150700
Cr	0.000000	0.000000	4.301407
O	2.150700	2.150700	4.301407
O	0.000000	2.150700	6.452107
O	2.150700	0.000000	6.452107
Y_sv	2.150700	2.150700	6.452107
Cr	0.000000	4.301407	0.000000
O	2.150700	6.452107	0.000000
O	0.000000	6.452107	2.150700
O	2.150700	4.301407	2.150700
Y_sv	2.150700	6.452107	2.150700
Cr	0.000000	4.301407	4.301407
O	2.150700	6.452107	4.301407
O	0.000000	6.452107	6.452107
O	2.150700	4.301407	6.452107
Y_sv	2.150700	6.452107	6.452107
Cr	4.301407	0.000000	0.000000
O	6.452107	2.150700	0.000000
O	4.301407	2.150700	2.150700
O	6.452107	0.000000	2.150700
Y_sv	6.452107	2.150700	2.150700
Cr	4.301407	0.000000	4.301407
O	6.452107	2.150700	4.301407
O	4.301407	2.150700	6.452107
O	6.452107	0.000000	6.452107
Y_sv	6.452107	2.150700	6.452107
Cr	4.301407	4.301407	0.000000
O	6.452107	6.452107	0.000000
O	4.301407	6.452107	2.150700
O	6.452107	4.301407	2.150700
Y_sv	6.452107	6.452107	2.150700
Cr	4.301407	4.301407	4.301407
O	6.452107	6.452107	4.301407
O	4.301407	6.452107	6.452107
O	6.452107	4.301407	6.452107
Y_sv	6.452107	6.452107	6.452107
