112

O	3.557208	-1.321493	-1.321493
O	-1.321974	1.321493	-3.558795
O	1.321974	-1.321493	-3.558795
O	1.117617	1.118651	-1.118651
O	6.201156	1.321493	-1.321493
O	1.117617	3.761637	-3.761637
O	3.761565	3.761637	-1.118651
O	3.761565	1.118651	-3.761637
Os	0.000000	0.000000	0.000000
Os	2.439591	-2.440144	-2.440144
Sr	-1.219795	-1.220072	-3.660216
Sr	3.659386	1.220072	-1.220072
Sr	6.098977	-1.220072	-1.220072
Sr	1.219795	1.220072	-3.660216
O	8.436390	3.558795	-1.321493
O	3.557208	6.201781	-3.558795
O	6.201156	3.558795	-3.558795
O	5.996799	5.998939	-1.118651
O	11.080338	6.201781	-1.321493
O	5.996799	8.641925	-3.761637
O	8.640747	8.641925	-1.118651
O	8.640747	5.998939	-3.761637
Os	4.879182	4.880288	0.000000
Os	7.318773	2.440144	-2.440144
Sr	3.659386	3.660216	-3.660216
Sr	8.538568	6.100360	-1.220072
Sr	10.978159	3.660216	-1.220072
Sr	6.098977	6.100360	-3.660216
O	-1.321974	-1.321493	-6.201781
O	-6.201156	1.321493	-8.439083
O	-3.557208	-1.321493	-8.439083
O	-3.761565	1.118651	-5.998939
O	1.321974	1.321493	-6.201781
O	-3.761565	3.761637	-8.641925
O	-1.117617	3.761637	-5.998939
O	-1.117617	1.118651	-8.641925
Os	-4.879182	0.000000	-4.880288
Os	-2.439591	-2.440144	-7.320432
Sr	-6.098977	-1.220072	-8.540504
Sr	-1.219795	1.220072	-6.100360
Sr	1.219795	-1.220072	-6.100360
Sr	-3.659386	1.220072	-8.540504
O	3.557208	3.558795	-6.201781
O	-1.321974	6.201781	-8.439083
O	1.321974	3.558795	-8.439083
O	1.117617	5.998939	-5.998939
O	6.201156	6.201781	-6.201781
O	1.117617	8.641925	-8.641925
O	3.761565	8.641925	-5.998939
O	3.761565	5.998939	-8.641925
Os	0.000000	4.880288	-4.880288
Os	2.439591	2.440144	-7.320432
Sr	-1.219795	3.660216	-8.540504
Sr	3.659386	6.100360	-6.100360
Sr	6.098977	3.660216	-6.100360
Sr	1.219795	6.100360	-8.540504
O	8.436390	-6.201781	-1.321493
O	3.557208	-3.558795	-3.558795
O	6.201156	-6.201781	-3.558795
O	5.996799	-3.761637	-1.118651
O	11.080338	-3.558795	-1.321493
O	5.996799	-1.118651	-3.761637
O	8.640747	-1.118651	-1.118651
O	8.640747	-3.761637	-3.761637
Os	4.879182	-4.880288	0.000000
Os	7.318773	-7.320432	-2.440144
Sr	3.659386	-6.100360	-3.660216
Sr	8.538568	-3.660216	-1.220072
Sr	10.978159	-6.100360	-1.220072
Sr	6.098977	-3.660216	-3.660216
O	13.315572	-1.321493	-1.321493
O	8.436390	1.321493	-3.558795
O	11.080338	-1.321493	-3.558795
O	10.875981	1.118651	-1.118651
O	15.959520	1.321493	-1.321493
O	10.875981	3.761637	-3.761637
O	13.519929	3.761637	-1.118651
O	13.519929	1.118651	-3.761637
Os	9.758364	0.000000	0.000000
Os	12.197955	-2.440144	-2.440144
Sr	8.538568	-1.220072	-3.660216
Sr	13.417750	1.220072	-1.220072
Sr	15.857341	-1.220072	-1.220072
Sr	10.978159	1.220072	-3.660216
O	3.557208	-6.201781	-6.201781
O	-1.321974	-3.558795	-8.439083
O	1.321974	-6.201781	-8.439083
O	1.117617	-3.761637	-5.998939
O	6.201156	-3.558795	-6.201781
O	1.117617	-1.118651	-8.641925
O	3.761565	-1.118651	-5.998939
O	3.761565	-3.761637	-8.641925
Os	0.000000	-4.880288	-4.880288
Os	2.439591	-7.320432	-7.320432
Sr	-1.219795	-6.100360	-8.540504
Sr	3.659386	-3.660216	-6.100360
Sr	6.098977	-6.100360	-6.100360
Sr	1.219795	-3.660216	-8.540504
O	8.436390	-1.321493	-6.201781
O	3.557208	1.321493	-8.439083
O	6.201156	-1.321493	-8.439083
O	5.996799	1.118651	-5.998939
O	11.080338	1.321493	-6.201781
O	5.996799	3.761637	-8.641925
O	8.640747	3.761637	-5.998939
O	8.640747	1.118651	-8.641925
Os	4.879182	0.000000	-4.880288
Os	7.318773	-2.440144	-7.320432
Sr	3.659386	-1.220072	-8.540504
Sr	8.538568	1.220072	-6.100360
Sr	10.978159	-1.220072	-6.100360
Sr	6.098977	1.220072	-8.540504
