40

F	0.000000	0.000000	0.000000
O	0.000000	2.286438	2.286438
O	2.286438	0.000000	2.286438
O	2.286438	2.286438	0.000000
Y	2.286438	2.286438	2.286438
F	0.000000	0.000000	4.572877
O	0.000000	2.286438	6.859315
O	2.286438	0.000000	6.859315
O	2.286438	2.286438	4.572877
Y	2.286438	2.286438	6.859315
F	0.000000	4.572877	0.000000
O	0.000000	6.859315	2.286438
O	2.286438	4.572877	2.286438
O	2.286438	6.859315	0.000000
Y	2.286438	6.859315	2.286438
F	0.000000	4.572877	4.572877
O	0.000000	6.859315	6.859315
O	2.286438	4.572877	6.859315
O	2.286438	6.859315	4.572877
Y	2.286438	6.859315	6.859315
F	4.572877	0.000000	0.000000
O	4.572877	2.286438	2.286438
O	6.859315	0.000000	2.286438
O	6.859315	2.286438	0.000000
Y	6.859315	2.286438	2.286438
F	4.572877	0.000000	4.572877
O	4.572877	2.286438	6.859315
O	6.859315	0.000000	6.859315
O	6.859315	2.286438	4.572877
Y	6.859315	2.286438	6.859315
F	4.572877	4.572877	0.000000
O	4.572877	6.859315	2.286438
O	6.859315	4.572877	2.286438
O	6.859315	6.859315	0.000000
Y	6.859315	6.859315	2.286438
F	4.572877	4.572877	4.572877
O	4.572877	6.859315	6.859315
O	6.859315	4.572877	6.859315
O	6.859315	6.859315	4.572877
Y	6.859315	6.859315	6.859315
