40

Mn	0.000000	0.000000	0.000000
O	1.914650	1.914650	0.000000
O	0.000000	1.914650	1.914650
O	1.914650	0.000000	1.914650
Ti	1.914650	1.914650	1.914650
Mn	0.000000	0.000000	3.829306
O	1.914650	1.914650	3.829306
O	0.000000	1.914650	5.743956
O	1.914650	0.000000	5.743956
Ti	1.914650	1.914650	5.743956
Mn	0.000000	3.829306	0.000000
O	1.914650	5.743956	0.000000
O	0.000000	5.743956	1.914650
O	1.914650	3.829306	1.914650
Ti	1.914650	5.743956	1.914650
Mn	0.000000	3.829306	3.829306
O	1.914650	5.743956	3.829306
O	0.000000	5.743956	5.743956
O	1.914650	3.829306	5.743956
Ti	1.914650	5.743956	5.743956
Mn	3.829306	0.000000	0.000000
O	5.743956	1.914650	0.000000
O	3.829306	1.914650	1.914650
O	5.743956	0.000000	1.914650
Ti	5.743956	1.914650	1.914650
Mn	3.829306	0.000000	3.829306
O	5.743956	1.914650	3.829306
O	3.829306	1.914650	5.743956
O	5.743956	0.000000	5.743956
Ti	5.743956	1.914650	5.743956
Mn	3.829306	3.829306	0.000000
O	5.743956	5.743956	0.000000
O	3.829306	5.743956	1.914650
O	5.743956	3.829306	1.914650
Ti	5.743956	5.743956	1.914650
Mn	3.829306	3.829306	3.829306
O	5.743956	5.743956	3.829306
O	3.829306	5.743956	5.743956
O	5.743956	3.829306	5.743956
Ti	5.743956	5.743956	5.743956
