40

Mn	0.000000	0.000000	0.000000
O	0.000000	1.942245	1.942245
O	1.942245	0.000000	1.942245
O	1.942245	1.942245	0.000000
Ti	1.942245	1.942245	1.942245
Mn	0.000000	0.000000	3.884490
O	0.000000	1.942245	5.826735
O	1.942245	0.000000	5.826735
O	1.942245	1.942245	3.884490
Ti	1.942245	1.942245	5.826735
Mn	0.000000	3.884490	0.000000
O	0.000000	5.826735	1.942245
O	1.942245	3.884490	1.942245
O	1.942245	5.826735	0.000000
Ti	1.942245	5.826735	1.942245
Mn	0.000000	3.884490	3.884490
O	0.000000	5.826735	5.826735
O	1.942245	3.884490	5.826735
O	1.942245	5.826735	3.884490
Ti	1.942245	5.826735	5.826735
Mn	3.884490	0.000000	0.000000
O	3.884490	1.942245	1.942245
O	5.826735	0.000000	1.942245
O	5.826735	1.942245	0.000000
Ti	5.826735	1.942245	1.942245
Mn	3.884490	0.000000	3.884490
O	3.884490	1.942245	5.826735
O	5.826735	0.000000	5.826735
O	5.826735	1.942245	3.884490
Ti	5.826735	1.942245	5.826735
Mn	3.884490	3.884490	0.000000
O	3.884490	5.826735	1.942245
O	5.826735	3.884490	1.942245
O	5.826735	5.826735	0.000000
Ti	5.826735	5.826735	1.942245
Mn	3.884490	3.884490	3.884490
O	3.884490	5.826735	5.826735
O	5.826735	3.884490	5.826735
O	5.826735	5.826735	3.884490
Ti	5.826735	5.826735	5.826735
