40

Co	1.813900	1.813900	1.813900
O	1.813900	1.813900	0.000000
O	0.000000	1.813900	1.813900
O	1.813900	0.000000	1.813900
Sc_sv	0.000000	0.000000	0.000000
Co	1.813900	1.813900	5.441710
O	1.813900	1.813900	3.627810
O	0.000000	1.813900	5.441710
O	1.813900	0.000000	5.441710
Sc_sv	0.000000	0.000000	3.627810
Co	1.813900	5.441710	1.813900
O	1.813900	5.441710	0.000000
O	0.000000	5.441710	1.813900
O	1.813900	3.627810	1.813900
Sc_sv	0.000000	3.627810	0.000000
Co	1.813900	5.441710	5.441710
O	1.813900	5.441710	3.627810
O	0.000000	5.441710	5.441710
O	1.813900	3.627810	5.441710
Sc_sv	0.000000	3.627810	3.627810
Co	5.441710	1.813900	1.813900
O	5.441710	1.813900	0.000000
O	3.627810	1.813900	1.813900
O	5.441710	0.000000	1.813900
Sc_sv	3.627810	0.000000	0.000000
Co	5.441710	1.813900	5.441710
O	5.441710	1.813900	3.627810
O	3.627810	1.813900	5.441710
O	5.441710	0.000000	5.441710
Sc_sv	3.627810	0.000000	3.627810
Co	5.441710	5.441710	1.813900
O	5.441710	5.441710	0.000000
O	3.627810	5.441710	1.813900
O	5.441710	3.627810	1.813900
Sc_sv	3.627810	3.627810	0.000000
Co	5.441710	5.441710	5.441710
O	5.441710	5.441710	3.627810
O	3.627810	5.441710	5.441710
O	5.441710	3.627810	5.441710
Sc_sv	3.627810	3.627810	3.627810
