112

Cr	0.000000	0.000000	0.000000
Cr	2.204037	-2.204658	-2.204658
O	3.388274	-1.019612	-1.019612
O	-1.019801	1.019612	-3.389703
O	1.019801	-1.019612	-3.389703
O	1.184237	1.185045	-1.185046
O	5.427876	1.019612	-1.019612
O	1.184237	3.224270	-3.224270
O	3.223838	3.224270	-1.185046
O	3.223838	1.185045	-3.224270
Ta	-1.102019	-1.102329	-3.306987
Ta	3.306056	1.102329	-1.102329
Ta	5.510094	-1.102329	-1.102329
Ta	1.102019	1.102329	-3.306987
Cr	4.408075	4.409315	0.000000
Cr	6.612112	2.204658	-2.204658
O	7.796349	3.389703	-1.019612
O	3.388274	5.428928	-3.389703
O	5.427876	3.389703	-3.389703
O	5.592311	5.594361	-1.185046
O	9.835951	5.428928	-1.019612
O	5.592312	7.633585	-3.224270
O	7.631913	7.633585	-1.185046
O	7.631913	5.594361	-3.224270
Ta	3.306056	3.306987	-3.306987
Ta	7.714131	5.511644	-1.102329
Ta	9.918169	3.306987	-1.102329
Ta	5.510094	5.511644	-3.306987
Cr	-4.408075	0.000000	-4.409315
Cr	-2.204037	-2.204658	-6.613973
O	-1.019801	-1.019612	-5.428928
O	-5.427876	1.019612	-7.799019
O	-3.388274	-1.019612	-7.799019
O	-3.223838	1.185045	-5.594361
O	1.019801	1.019612	-5.428928
O	-3.223838	3.224270	-7.633585
O	-1.184237	3.224270	-5.594361
O	-1.184237	1.185045	-7.633585
Ta	-5.510094	-1.102329	-7.716302
Ta	-1.102019	1.102329	-5.511644
Ta	1.102019	-1.102329	-5.511644
Ta	-3.306056	1.102329	-7.716302
Cr	0.000000	4.409315	-4.409315
Cr	2.204037	2.204658	-6.613973
O	3.388274	3.389703	-5.428928
O	-1.019801	5.428928	-7.799019
O	1.019801	3.389703	-7.799019
O	1.184237	5.594361	-5.594361
O	5.427876	5.428928	-5.428928
O	1.184237	7.633585	-7.633585
O	3.223838	7.633585	-5.594361
O	3.223838	5.594361	-7.633585
Ta	-1.102019	3.306987	-7.716302
Ta	3.306056	5.511644	-5.511644
Ta	5.510094	3.306987	-5.511644
Ta	1.102019	5.511644	-7.716302
Cr	4.408075	-4.409315	0.000000
Cr	6.612112	-6.613973	-2.204658
O	7.796349	-5.428928	-1.019612
O	3.388274	-3.389703	-3.389703
O	5.427876	-5.428928	-3.389703
O	5.592311	-3.224270	-1.185046
O	9.835951	-3.389703	-1.019612
O	5.592312	-1.185046	-3.224270
O	7.631913	-1.185046	-1.185046
O	7.631913	-3.224270	-3.224270
Ta	3.306056	-5.511644	-3.306987
Ta	7.714131	-3.306987	-1.102329
Ta	9.918169	-5.511644	-1.102329
Ta	5.510094	-3.306987	-3.306987
Cr	8.816150	0.000000	0.000000
Cr	11.020187	-2.204658	-2.204658
O	12.204424	-1.019612	-1.019612
O	7.796349	1.019612	-3.389703
O	9.835951	-1.019612	-3.389703
O	10.000386	1.185045	-1.185046
O	14.244026	1.019612	-1.019612
O	10.000386	3.224270	-3.224270
O	12.039988	3.224270	-1.185046
O	12.039988	1.185045	-3.224270
Ta	7.714131	-1.102329	-3.306987
Ta	12.122206	1.102329	-1.102329
Ta	14.326244	-1.102329	-1.102329
Ta	9.918169	1.102329	-3.306987
Cr	0.000000	-4.409315	-4.409315
Cr	2.204037	-6.613973	-6.613973
O	3.388274	-5.428928	-5.428928
O	-1.019801	-3.389703	-7.799019
O	1.019801	-5.428928	-7.799019
O	1.184237	-3.224270	-5.594361
O	5.427876	-3.389703	-5.428928
O	1.184237	-1.185046	-7.633585
O	3.223838	-1.185046	-5.594361
O	3.223838	-3.224270	-7.633585
Ta	-1.102019	-5.511644	-7.716302
Ta	3.306056	-3.306987	-5.511644
Ta	5.510094	-5.511644	-5.511644
Ta	1.102019	-3.306987	-7.716302
Cr	4.408075	0.000000	-4.409315
Cr	6.612112	-2.204658	-6.613973
O	7.796349	-1.019612	-5.428928
O	3.388274	1.019612	-7.799019
O	5.427876	-1.019612	-7.799019
O	5.592311	1.185045	-5.594361
O	9.835951	1.019612	-5.428928
O	5.592312	3.224270	-7.633585
O	7.631913	3.224270	-5.594361
O	7.631913	1.185045	-7.633585
Ta	3.306056	-1.102329	-7.716302
Ta	7.714131	1.102329	-5.511644
Ta	9.918169	-1.102329	-5.511644
Ta	5.510094	1.102329	-7.716302
