40

O	0.000000	2.111125	2.111125
O	2.111125	0.000000	2.111125
O	2.111125	2.111125	0.000000
Pb	2.111125	2.111125	2.111125
Si	0.000000	0.000000	0.000000
O	0.000000	2.111125	6.333376
O	2.111125	0.000000	6.333376
O	2.111125	2.111125	4.222251
Pb	2.111125	2.111125	6.333376
Si	0.000000	0.000000	4.222251
O	0.000000	6.333376	2.111125
O	2.111125	4.222251	2.111125
O	2.111125	6.333376	0.000000
Pb	2.111125	6.333376	2.111125
Si	0.000000	4.222251	0.000000
O	0.000000	6.333376	6.333376
O	2.111125	4.222251	6.333376
O	2.111125	6.333376	4.222251
Pb	2.111125	6.333376	6.333376
Si	0.000000	4.222251	4.222251
O	4.222251	2.111125	2.111125
O	6.333376	0.000000	2.111125
O	6.333376	2.111125	0.000000
Pb	6.333376	2.111125	2.111125
Si	4.222251	0.000000	0.000000
O	4.222251	2.111125	6.333376
O	6.333376	0.000000	6.333376
O	6.333376	2.111125	4.222251
Pb	6.333376	2.111125	6.333376
Si	4.222251	0.000000	4.222251
O	4.222251	6.333376	2.111125
O	6.333376	4.222251	2.111125
O	6.333376	6.333376	0.000000
Pb	6.333376	6.333376	2.111125
Si	4.222251	4.222251	0.000000
O	4.222251	6.333376	6.333376
O	6.333376	4.222251	6.333376
O	6.333376	6.333376	4.222251
Pb	6.333376	6.333376	6.333376
Si	4.222251	4.222251	4.222251
