40

O	2.086725	2.086725	0.000000
O	0.000000	2.086725	2.086725
O	2.086725	0.000000	2.086725
Pb	2.086725	2.086725	2.086725
Si	0.000000	0.000000	0.000000
O	2.086725	2.086725	4.173450
O	0.000000	2.086725	6.260175
O	2.086725	0.000000	6.260175
Pb	2.086725	2.086725	6.260175
Si	0.000000	0.000000	4.173450
O	2.086725	6.260175	0.000000
O	0.000000	6.260175	2.086725
O	2.086725	4.173450	2.086725
Pb	2.086725	6.260175	2.086725
Si	0.000000	4.173450	0.000000
O	2.086725	6.260175	4.173450
O	0.000000	6.260175	6.260175
O	2.086725	4.173450	6.260175
Pb	2.086725	6.260175	6.260175
Si	0.000000	4.173450	4.173450
O	6.260175	2.086725	0.000000
O	4.173450	2.086725	2.086725
O	6.260175	0.000000	2.086725
Pb	6.260175	2.086725	2.086725
Si	4.173450	0.000000	0.000000
O	6.260175	2.086725	4.173450
O	4.173450	2.086725	6.260175
O	6.260175	0.000000	6.260175
Pb	6.260175	2.086725	6.260175
Si	4.173450	0.000000	4.173450
O	6.260175	6.260175	0.000000
O	4.173450	6.260175	2.086725
O	6.260175	4.173450	2.086725
Pb	6.260175	6.260175	2.086725
Si	4.173450	4.173450	0.000000
O	6.260175	6.260175	4.173450
O	4.173450	6.260175	6.260175
O	6.260175	4.173450	6.260175
Pb	6.260175	6.260175	6.260175
Si	4.173450	4.173450	4.173450
