40

O	2.094960	2.094960	0.000000
O	0.000000	2.094960	2.094960
O	2.094960	0.000000	2.094960
Pb	2.094960	2.094960	2.094960
Tc	0.000000	0.000000	0.000000
O	2.094960	2.094960	4.189928
O	0.000000	2.094960	6.284887
O	2.094960	0.000000	6.284887
Pb	2.094960	2.094960	6.284887
Tc	0.000000	0.000000	4.189928
O	2.094960	6.284887	0.000000
O	0.000000	6.284887	2.094960
O	2.094960	4.189928	2.094960
Pb	2.094960	6.284887	2.094960
Tc	0.000000	4.189928	0.000000
O	2.094960	6.284887	4.189928
O	0.000000	6.284887	6.284887
O	2.094960	4.189928	6.284887
Pb	2.094960	6.284887	6.284887
Tc	0.000000	4.189928	4.189928
O	6.284887	2.094960	0.000000
O	4.189928	2.094960	2.094960
O	6.284887	0.000000	2.094960
Pb	6.284887	2.094960	2.094960
Tc	4.189928	0.000000	0.000000
O	6.284887	2.094960	4.189928
O	4.189928	2.094960	6.284887
O	6.284887	0.000000	6.284887
Pb	6.284887	2.094960	6.284887
Tc	4.189928	0.000000	4.189928
O	6.284887	6.284887	0.000000
O	4.189928	6.284887	2.094960
O	6.284887	4.189928	2.094960
Pb	6.284887	6.284887	2.094960
Tc	4.189928	4.189928	0.000000
O	6.284887	6.284887	4.189928
O	4.189928	6.284887	6.284887
O	6.284887	4.189928	6.284887
Pb	6.284887	6.284887	6.284887
Tc	4.189928	4.189928	4.189928
