40

Eu	1.889639	1.889639	1.889639
Ni	0.000000	0.000000	0.000000
O	1.889639	0.000000	0.000000
O	0.000000	1.889639	0.000000
O	0.000000	0.000000	1.889639
Eu	1.889639	1.889639	5.668918
Ni	0.000000	0.000000	3.779278
O	1.889639	0.000000	3.779278
O	0.000000	1.889639	3.779278
O	0.000000	0.000000	5.668918
Eu	1.889639	5.668918	1.889639
Ni	0.000000	3.779278	0.000000
O	1.889639	3.779278	0.000000
O	0.000000	5.668918	0.000000
O	0.000000	3.779278	1.889639
Eu	1.889639	5.668918	5.668918
Ni	0.000000	3.779278	3.779278
O	1.889639	3.779278	3.779278
O	0.000000	5.668918	3.779278
O	0.000000	3.779278	5.668918
Eu	5.668918	1.889639	1.889639
Ni	3.779278	0.000000	0.000000
O	5.668918	0.000000	0.000000
O	3.779278	1.889639	0.000000
O	3.779278	0.000000	1.889639
Eu	5.668918	1.889639	5.668918
Ni	3.779278	0.000000	3.779278
O	5.668918	0.000000	3.779278
O	3.779278	1.889639	3.779278
O	3.779278	0.000000	5.668918
Eu	5.668918	5.668918	1.889639
Ni	3.779278	3.779278	0.000000
O	5.668918	3.779278	0.000000
O	3.779278	5.668918	0.000000
O	3.779278	3.779278	1.889639
Eu	5.668918	5.668918	5.668918
Ni	3.779278	3.779278	3.779278
O	5.668918	3.779278	3.779278
O	3.779278	5.668918	3.779278
O	3.779278	3.779278	5.668918
