40

Br	0.000000	0.000000	0.000000
O	0.000000	2.350859	2.350859
O	2.350859	0.000000	2.350859
O	2.350859	2.350859	0.000000
Sr	2.350859	2.350859	2.350859
Br	0.000000	0.000000	4.701718
O	0.000000	2.350859	7.052577
O	2.350859	0.000000	7.052577
O	2.350859	2.350859	4.701718
Sr	2.350859	2.350859	7.052577
Br	0.000000	4.701718	0.000000
O	0.000000	7.052577	2.350859
O	2.350859	4.701718	2.350859
O	2.350859	7.052577	0.000000
Sr	2.350859	7.052577	2.350859
Br	0.000000	4.701718	4.701718
O	0.000000	7.052577	7.052577
O	2.350859	4.701718	7.052577
O	2.350859	7.052577	4.701718
Sr	2.350859	7.052577	7.052577
Br	4.701718	0.000000	0.000000
O	4.701718	2.350859	2.350859
O	7.052577	0.000000	2.350859
O	7.052577	2.350859	0.000000
Sr	7.052577	2.350859	2.350859
Br	4.701718	0.000000	4.701718
O	4.701718	2.350859	7.052577
O	7.052577	0.000000	7.052577
O	7.052577	2.350859	4.701718
Sr	7.052577	2.350859	7.052577
Br	4.701718	4.701718	0.000000
O	4.701718	7.052577	2.350859
O	7.052577	4.701718	2.350859
O	7.052577	7.052577	0.000000
Sr	7.052577	7.052577	2.350859
Br	4.701718	4.701718	4.701718
O	4.701718	7.052577	7.052577
O	7.052577	4.701718	7.052577
O	7.052577	7.052577	4.701718
Sr	7.052577	7.052577	7.052577
