112

O	-1.023642	1.023150	-3.320768
O	3.320109	-1.023150	-1.023150
O	1.023642	-1.023150	-3.320768
O	1.148233	1.148809	-1.148809
O	5.367382	1.023150	-1.023150
O	1.148233	3.195108	-3.195108
O	3.195507	3.195108	-1.148809
O	3.195507	1.148809	-3.195108
Sn	0.000000	0.000000	0.000000
Sn	2.171875	-2.171959	-2.171959
Zn	-1.085938	-1.085979	-3.257938
Zn	3.257803	1.085979	-1.085979
Zn	5.429678	-1.085979	-1.085979
Zn	1.085938	1.085979	-3.257938
O	3.320101	5.367067	-3.320768
O	7.663851	3.320768	-1.023150
O	5.367384	3.320768	-3.320768
O	5.491976	5.492727	-1.148809
O	9.711124	5.367067	-1.023150
O	5.491976	7.539026	-3.195108
O	7.539249	7.539026	-1.148809
O	7.539249	5.492727	-3.195108
Sn	4.343742	4.343917	0.000000
Sn	6.515617	2.171959	-2.171959
Zn	3.257805	3.257938	-3.257938
Zn	7.601545	5.429897	-1.085979
Zn	9.773420	3.257938	-1.085979
Zn	5.429680	5.429897	-3.257938
O	-5.367384	1.023150	-7.664686
O	-1.023634	-1.023150	-5.367067
O	-3.320101	-1.023150	-7.664686
O	-3.195509	1.148809	-5.492727
O	1.023640	1.023150	-5.367067
O	-3.195509	3.195108	-7.539026
O	-1.148236	3.195108	-5.492727
O	-1.148236	1.148809	-7.539026
Sn	-4.343742	0.000000	-4.343917
Sn	-2.171867	-2.171959	-6.515876
Zn	-5.429680	-1.085979	-7.601856
Zn	-1.085940	1.085979	-5.429897
Zn	1.085935	-1.085979	-5.429897
Zn	-3.257805	1.085979	-7.601856
O	-1.023642	5.367067	-7.664686
O	3.320109	3.320768	-5.367067
O	1.023642	3.320768	-7.664686
O	1.148233	5.492727	-5.492727
O	5.367382	5.367067	-5.367067
O	1.148233	7.539026	-7.539026
O	3.195507	7.539026	-5.492727
O	3.195507	5.492727	-7.539026
Sn	0.000000	4.343917	-4.343917
Sn	2.171875	2.171959	-6.515876
Zn	-1.085938	3.257938	-7.601856
Zn	3.257803	5.429897	-5.429897
Zn	5.429678	3.257938	-5.429897
Zn	1.085938	5.429897	-7.601856
O	3.320101	-3.320768	-3.320768
O	7.663851	-5.367067	-1.023150
O	5.367384	-5.367067	-3.320768
O	5.491976	-3.195108	-1.148809
O	9.711124	-3.320768	-1.023150
O	5.491976	-1.148809	-3.195108
O	7.539249	-1.148809	-1.148809
O	7.539249	-3.195108	-3.195108
Sn	4.343742	-4.343917	0.000000
Sn	6.515617	-6.515876	-2.171959
Zn	3.257805	-5.429897	-3.257938
Zn	7.601545	-3.257938	-1.085979
Zn	9.773420	-5.429897	-1.085979
Zn	5.429680	-3.257938	-3.257938
O	7.663843	1.023150	-3.320768
O	12.007593	-1.023150	-1.023150
O	9.711126	-1.023150	-3.320768
O	9.835718	1.148809	-1.148809
O	14.054867	1.023150	-1.023150
O	9.835718	3.195108	-3.195108
O	11.882992	3.195108	-1.148809
O	11.882992	1.148809	-3.195108
Sn	8.687485	0.000000	0.000000
Sn	10.859360	-2.171959	-2.171959
Zn	7.601547	-1.085979	-3.257938
Zn	11.945288	1.085979	-1.085979
Zn	14.117163	-1.085979	-1.085979
Zn	9.773422	1.085979	-3.257938
O	-1.023642	-3.320768	-7.664686
O	3.320109	-5.367067	-5.367067
O	1.023642	-5.367067	-7.664686
O	1.148233	-3.195108	-5.492727
O	5.367382	-3.320768	-5.367067
O	1.148233	-1.148809	-7.539026
O	3.195507	-1.148809	-5.492727
O	3.195507	-3.195108	-7.539026
Sn	0.000000	-4.343917	-4.343917
Sn	2.171875	-6.515876	-6.515876
Zn	-1.085938	-5.429897	-7.601856
Zn	3.257803	-3.257938	-5.429897
Zn	5.429678	-5.429897	-5.429897
Zn	1.085938	-3.257938	-7.601856
O	3.320101	1.023150	-7.664686
O	7.663851	-1.023150	-5.367067
O	5.367384	-1.023150	-7.664686
O	5.491976	1.148809	-5.492727
O	9.711124	1.023150	-5.367067
O	5.491976	3.195108	-7.539026
O	7.539249	3.195108	-5.492727
O	7.539249	1.148809	-7.539026
Sn	4.343742	0.000000	-4.343917
Sn	6.515617	-2.171959	-6.515876
Zn	3.257805	-1.085979	-7.601856
Zn	7.601545	1.085979	-5.429897
Zn	9.773420	-1.085979	-5.429897
Zn	5.429680	1.085979	-7.601856
