112

Al	-4.088187	-2.044094	-2.044094
Al	-2.044094	-4.088187	-2.044094
Al	-2.044094	-2.044094	-4.088187
Al	-4.088187	-4.088187	-4.088187
Zn	-1.022047	-1.022047	-1.022047
Zn	-7.154328	-7.154328	-7.154328
O	-2.163123	-3.969158	-3.969158
O	-3.969158	-2.163123	-3.969158
O	-3.969158	-3.969158	-2.163123
O	-2.163123	-2.163123	-2.163123
O	-6.013252	-4.207217	-4.207217
O	-4.207217	-6.013252	-4.207217
O	-4.207217	-4.207217	-6.013252
O	-6.013252	-6.013252	-6.013252
Al	-4.088187	-6.132281	-6.132281
Al	-2.044094	-8.176375	-6.132281
Al	-2.044094	-6.132281	-8.176375
Al	-4.088187	-8.176375	-8.176375
Zn	-1.022047	-5.110234	-5.110234
Zn	-7.154328	-11.242516	-11.242516
O	-2.163123	-8.057346	-8.057346
O	-3.969158	-6.251311	-8.057346
O	-3.969158	-8.057346	-6.251311
O	-2.163123	-6.251311	-6.251311
O	-6.013252	-8.295404	-8.295404
O	-4.207217	-10.101439	-8.295404
O	-4.207217	-8.295404	-10.101439
O	-6.013252	-10.101439	-10.101439
Al	-8.176375	-2.044094	-6.132281
Al	-6.132281	-4.088187	-6.132281
Al	-6.132281	-2.044094	-8.176375
Al	-8.176375	-4.088187	-8.176375
Zn	-5.110234	-1.022047	-5.110234
Zn	-11.242516	-7.154328	-11.242516
O	-6.251311	-3.969158	-8.057346
O	-8.057346	-2.163123	-8.057346
O	-8.057346	-3.969158	-6.251311
O	-6.251311	-2.163123	-6.251311
O	-10.101439	-4.207217	-8.295404
O	-8.295404	-6.013252	-8.295404
O	-8.295404	-4.207217	-10.101439
O	-10.101439	-6.013252	-10.101439
Al	-8.176375	-6.132281	-10.220469
Al	-6.132281	-8.176375	-10.220469
Al	-6.132281	-6.132281	-12.264562
Al	-8.176375	-8.176375	-12.264562
Zn	-5.110234	-5.110234	-9.198422
Zn	-11.242516	-11.242516	-15.330703
O	-6.251311	-8.057346	-12.145533
O	-8.057346	-6.251311	-12.145533
O	-8.057346	-8.057346	-10.339498
O	-6.251311	-6.251311	-10.339498
O	-10.101439	-8.295404	-12.383592
O	-8.295404	-10.101439	-12.383592
O	-8.295404	-8.295404	-14.189627
O	-10.101439	-10.101439	-14.189627
Al	-8.176375	-6.132281	-2.044094
Al	-6.132281	-8.176375	-2.044094
Al	-6.132281	-6.132281	-4.088187
Al	-8.176375	-8.176375	-4.088187
Zn	-5.110234	-5.110234	-1.022047
Zn	-11.242516	-11.242516	-7.154328
O	-6.251311	-8.057346	-3.969158
O	-8.057346	-6.251311	-3.969158
O	-8.057346	-8.057346	-2.163123
O	-6.251311	-6.251311	-2.163123
O	-10.101439	-8.295404	-4.207217
O	-8.295404	-10.101439	-4.207217
O	-8.295404	-8.295404	-6.013252
O	-10.101439	-10.101439	-6.013252
Al	-8.176375	-10.220469	-6.132281
Al	-6.132281	-12.264562	-6.132281
Al	-6.132281	-10.220469	-8.176375
Al	-8.176375	-12.264562	-8.176375
Zn	-5.110234	-9.198422	-5.110234
Zn	-11.242516	-15.330703	-11.242516
O	-6.251311	-12.145533	-8.057346
O	-8.057346	-10.339498	-8.057346
O	-8.057346	-12.145533	-6.251311
O	-6.251311	-10.339498	-6.251311
O	-10.101439	-12.383592	-8.295404
O	-8.295404	-14.189627	-8.295404
O	-8.295404	-12.383592	-10.101439
O	-10.101439	-14.189627	-10.101439
Al	-12.264562	-6.132281	-6.132281
Al	-10.220469	-8.176375	-6.132281
Al	-10.220469	-6.132281	-8.176375
Al	-12.264562	-8.176375	-8.176375
Zn	-9.198422	-5.110234	-5.110234
Zn	-15.330703	-11.242516	-11.242516
O	-10.339498	-8.057346	-8.057346
O	-12.145533	-6.251311	-8.057346
O	-12.145533	-8.057346	-6.251311
O	-10.339498	-6.251311	-6.251311
O	-14.189627	-8.295404	-8.295404
O	-12.383592	-10.101439	-8.295404
O	-12.383592	-8.295404	-10.101439
O	-14.189627	-10.101439	-10.101439
Al	-12.264562	-10.220469	-10.220469
Al	-10.220469	-12.264562	-10.220469
Al	-10.220469	-10.220469	-12.264562
Al	-12.264562	-12.264562	-12.264562
Zn	-9.198422	-9.198422	-9.198422
Zn	-15.330703	-15.330703	-15.330703
O	-10.339498	-12.145533	-12.145533
O	-12.145533	-10.339498	-12.145533
O	-12.145533	-12.145533	-10.339498
O	-10.339498	-10.339498	-10.339498
O	-14.189627	-12.383592	-12.383592
O	-12.383592	-14.189627	-12.383592
O	-12.383592	-12.383592	-14.189627
O	-14.189627	-14.189627	-14.189627
