112

Cr	0.000000	0.000000	0.000000
Cr	2.268970	-2.269739	-2.269739
Hf	-1.134485	-1.134869	-3.404608
Hf	3.403455	1.134869	-1.134869
Hf	5.672426	-1.134869	-1.134869
Hf	1.134485	1.134869	-3.404608
O	3.552173	-0.985317	-0.985317
O	-0.985768	0.985317	-3.554160
O	0.985768	-0.985317	-3.554160
O	1.283202	1.284422	-1.284422
O	5.523708	0.985317	-0.985317
O	1.283202	3.255056	-3.255056
O	3.254738	3.255056	-1.284422
O	3.254738	1.284422	-3.255056
Cr	4.537940	4.539478	0.000000
Cr	6.806911	2.269739	-2.269739
Hf	3.403455	3.404608	-3.404608
Hf	7.941396	5.674347	-1.134869
Hf	10.210366	3.404608	-1.134869
Hf	5.672426	5.674347	-3.404608
O	8.090113	3.554160	-0.985317
O	3.552173	5.524795	-3.554160
O	5.523708	3.554160	-3.554160
O	5.821143	5.823899	-1.284422
O	10.061649	5.524795	-0.985317
O	5.821143	7.794534	-3.255056
O	7.792678	7.794534	-1.284422
O	7.792678	5.823899	-3.255056
Cr	-4.537940	0.000000	-4.539478
Cr	-2.268970	-2.269739	-6.809217
Hf	-5.672426	-1.134869	-7.944086
Hf	-1.134485	1.134869	-5.674347
Hf	1.134485	-1.134869	-5.674347
Hf	-3.403455	1.134869	-7.944086
O	-0.985768	-0.985317	-5.524795
O	-5.523708	0.985317	-8.093638
O	-3.552173	-0.985317	-8.093638
O	-3.254738	1.284422	-5.823899
O	0.985768	0.985317	-5.524795
O	-3.254738	3.255056	-7.794534
O	-1.283202	3.255056	-5.823899
O	-1.283202	1.284422	-7.794534
Cr	0.000000	4.539478	-4.539478
Cr	2.268970	2.269739	-6.809217
Hf	-1.134485	3.404608	-7.944086
Hf	3.403455	5.674347	-5.674347
Hf	5.672426	3.404608	-5.674347
Hf	1.134485	5.674347	-7.944086
O	3.552173	3.554160	-5.524795
O	-0.985768	5.524795	-8.093638
O	0.985768	3.554160	-8.093638
O	1.283202	5.823899	-5.823899
O	5.523708	5.524795	-5.524795
O	1.283202	7.794534	-7.794534
O	3.254738	7.794534	-5.823899
O	3.254738	5.823899	-7.794534
Cr	4.537940	-4.539478	0.000000
Cr	6.806911	-6.809217	-2.269739
Hf	3.403455	-5.674347	-3.404608
Hf	7.941396	-3.404608	-1.134869
Hf	10.210366	-5.674347	-1.134869
Hf	5.672426	-3.404608	-3.404608
O	8.090113	-5.524795	-0.985317
O	3.552173	-3.554160	-3.554160
O	5.523708	-5.524795	-3.554160
O	5.821143	-3.255056	-1.284422
O	10.061649	-3.554160	-0.985317
O	5.821143	-1.284422	-3.255056
O	7.792678	-1.284422	-1.284422
O	7.792678	-3.255056	-3.255056
Cr	9.075881	0.000000	0.000000
Cr	11.344851	-2.269739	-2.269739
Hf	7.941396	-1.134869	-3.404608
Hf	12.479336	1.134869	-1.134869
Hf	14.748306	-1.134869	-1.134869
Hf	10.210366	1.134869	-3.404608
O	12.628054	-0.985317	-0.985317
O	8.090113	0.985317	-3.554160
O	10.061649	-0.985317	-3.554160
O	10.359083	1.284422	-1.284422
O	14.599589	0.985317	-0.985317
O	10.359083	3.255056	-3.255056
O	12.330619	3.255056	-1.284422
O	12.330619	1.284422	-3.255056
Cr	0.000000	-4.539478	-4.539478
Cr	2.268970	-6.809217	-6.809217
Hf	-1.134485	-5.674347	-7.944086
Hf	3.403455	-3.404608	-5.674347
Hf	5.672426	-5.674347	-5.674347
Hf	1.134485	-3.404608	-7.944086
O	3.552173	-5.524795	-5.524795
O	-0.985768	-3.554160	-8.093638
O	0.985768	-5.524795	-8.093638
O	1.283202	-3.255056	-5.823899
O	5.523708	-3.554160	-5.524795
O	1.283202	-1.284422	-7.794534
O	3.254738	-1.284422	-5.823899
O	3.254738	-3.255056	-7.794534
Cr	4.537940	0.000000	-4.539478
Cr	6.806911	-2.269739	-6.809217
Hf	3.403455	-1.134869	-7.944086
Hf	7.941396	1.134869	-5.674347
Hf	10.210366	-1.134869	-5.674347
Hf	5.672426	1.134869	-7.944086
O	8.090113	-0.985317	-5.524795
O	3.552173	0.985317	-8.093638
O	5.523708	-0.985317	-8.093638
O	5.821143	1.284422	-5.823899
O	10.061649	0.985317	-5.524795
O	5.821143	3.255056	-7.794534
O	7.792678	3.255056	-5.823899
O	7.792678	1.284422	-7.794534
