112

Be	0.000000	0.000000	0.000000
Be	2.003846	-2.004005	-2.004005
O	0.960360	0.960691	-0.960691
O	2.964206	-1.043314	-1.043314
O	-1.043496	1.043314	-2.964696
O	1.043496	-1.043314	-2.964696
O	0.960360	3.047319	-3.047319
O	3.047342	3.047319	-0.960691
O	3.047342	0.960691	-3.047319
O	5.051188	1.043314	-1.043314
Ti	-1.001923	-1.001998	-3.006003
Ti	1.001923	1.001998	-3.006003
Ti	3.005779	1.001998	-1.001998
Ti	5.009625	-1.001998	-1.001998
Be	4.007700	4.008004	0.000000
Be	6.011546	2.003999	-2.004005
O	4.968060	4.968695	-0.960691
O	6.971907	2.964690	-1.043314
O	2.964204	5.051318	-2.964696
O	5.051196	2.964690	-2.964696
O	4.968060	7.055323	-3.047319
O	7.055042	7.055323	-0.960691
O	7.055042	4.968695	-3.047319
O	9.058888	5.051318	-1.043314
Ti	3.005777	3.006006	-3.006003
Ti	5.009623	5.010002	-3.006003
Ti	7.013479	5.010002	-1.001998
Ti	9.017325	3.006007	-1.001998
Be	-4.007700	0.000000	-4.008004
Be	-2.003854	-2.004005	-6.012009
O	-3.047340	0.960691	-4.968695
O	-1.043494	-1.043314	-5.051318
O	-5.051196	1.043314	-6.972700
O	-2.964204	-1.043314	-6.972700
O	-3.047340	3.047319	-7.055323
O	-0.960358	3.047319	-4.968695
O	-0.960358	0.960691	-7.055323
O	1.043488	1.043314	-5.051318
Ti	-5.009623	-1.001998	-7.014007
Ti	-3.005777	1.001998	-7.014007
Ti	-1.001921	1.001998	-5.010002
Ti	1.001925	-1.001998	-5.010002
Be	0.000000	4.008004	-4.008004
Be	2.003846	2.003999	-6.012009
O	0.960360	4.968695	-4.968695
O	2.964206	2.964690	-5.051318
O	-1.043496	5.051318	-6.972700
O	1.043496	2.964690	-6.972700
O	0.960360	7.055323	-7.055323
O	3.047342	7.055323	-4.968695
O	3.047342	4.968695	-7.055323
O	5.051188	5.051318	-5.051318
Ti	-1.001923	3.006006	-7.014007
Ti	1.001923	5.010002	-7.014007
Ti	3.005779	5.010002	-5.010002
Ti	5.009625	3.006007	-5.010002
Be	4.007700	-4.008004	0.000000
Be	6.011546	-6.012009	-2.004005
O	4.968060	-3.047313	-0.960691
O	6.971907	-5.051318	-1.043314
O	2.964204	-2.964690	-2.964696
O	5.051196	-5.051318	-2.964696
O	4.968060	-0.960685	-3.047319
O	7.055042	-0.960685	-0.960691
O	7.055042	-3.047313	-3.047319
O	9.058888	-2.964690	-1.043314
Ti	3.005777	-5.010002	-3.006003
Ti	5.009623	-3.006006	-3.006003
Ti	7.013479	-3.006007	-1.001998
Ti	9.017325	-5.010002	-1.001998
Be	8.015400	0.000000	0.000000
Be	10.019246	-2.004005	-2.004005
O	8.975761	0.960691	-0.960691
O	10.979607	-1.043314	-1.043314
O	6.971905	1.043314	-2.964696
O	9.058896	-1.043314	-2.964696
O	8.975761	3.047319	-3.047319
O	11.062742	3.047319	-0.960691
O	11.062742	0.960691	-3.047319
O	13.066588	1.043314	-1.043314
Ti	7.013477	-1.001998	-3.006003
Ti	9.017323	1.001998	-3.006003
Ti	11.021179	1.001998	-1.001998
Ti	13.025025	-1.001998	-1.001998
Be	0.000000	-4.008004	-4.008004
Be	2.003846	-6.012009	-6.012009
O	0.960360	-3.047313	-4.968695
O	2.964206	-5.051318	-5.051318
O	-1.043496	-2.964690	-6.972700
O	1.043496	-5.051318	-6.972700
O	0.960360	-0.960685	-7.055323
O	3.047342	-0.960685	-4.968695
O	3.047342	-3.047313	-7.055323
O	5.051188	-2.964690	-5.051318
Ti	-1.001923	-5.010002	-7.014007
Ti	1.001923	-3.006006	-7.014007
Ti	3.005779	-3.006007	-5.010002
Ti	5.009625	-5.010002	-5.010002
Be	4.007700	0.000000	-4.008004
Be	6.011546	-2.004005	-6.012009
O	4.968060	0.960691	-4.968695
O	6.971907	-1.043314	-5.051318
O	2.964204	1.043314	-6.972700
O	5.051196	-1.043314	-6.972700
O	4.968060	3.047319	-7.055323
O	7.055042	3.047319	-4.968695
O	7.055042	0.960691	-7.055323
O	9.058888	1.043314	-5.051318
Ti	3.005777	-1.001998	-7.014007
Ti	5.009623	1.001998	-7.014007
Ti	7.013479	1.001998	-5.010002
Ti	9.017325	-1.001998	-5.010002
