40

Nb	2.045230	2.045230	2.045230
O	2.045230	2.045230	0.000000
O	2.045230	0.000000	2.045230
O	0.000000	2.045230	2.045230
Sr	0.000000	0.000000	0.000000
Nb	2.045230	2.045230	6.135690
O	2.045230	2.045230	4.090460
O	2.045230	0.000000	6.135690
O	0.000000	2.045230	6.135690
Sr	0.000000	0.000000	4.090460
Nb	2.045230	6.135690	2.045230
O	2.045230	6.135690	0.000000
O	2.045230	4.090460	2.045230
O	0.000000	6.135690	2.045230
Sr	0.000000	4.090460	0.000000
Nb	2.045230	6.135690	6.135690
O	2.045230	6.135690	4.090460
O	2.045230	4.090460	6.135690
O	0.000000	6.135690	6.135690
Sr	0.000000	4.090460	4.090460
Nb	6.135690	2.045230	2.045230
O	6.135690	2.045230	0.000000
O	6.135690	0.000000	2.045230
O	4.090460	2.045230	2.045230
Sr	4.090460	0.000000	0.000000
Nb	6.135690	2.045230	6.135690
O	6.135690	2.045230	4.090460
O	6.135690	0.000000	6.135690
O	4.090460	2.045230	6.135690
Sr	4.090460	0.000000	4.090460
Nb	6.135690	6.135690	2.045230
O	6.135690	6.135690	0.000000
O	6.135690	4.090460	2.045230
O	4.090460	6.135690	2.045230
Sr	4.090460	4.090460	0.000000
Nb	6.135690	6.135690	6.135690
O	6.135690	6.135690	4.090460
O	6.135690	4.090460	6.135690
O	4.090460	6.135690	6.135690
Sr	4.090460	4.090460	4.090460
