40

Fe	1.903090	1.903090	1.903090
O	1.903090	1.903090	0.000000
O	0.000000	1.903090	1.903090
O	1.903090	0.000000	1.903090
Re	0.000000	0.000000	0.000000
Fe	1.903090	1.903090	5.709255
O	1.903090	1.903090	3.806165
O	0.000000	1.903090	5.709255
O	1.903090	0.000000	5.709255
Re	0.000000	0.000000	3.806165
Fe	1.903090	5.709255	1.903090
O	1.903090	5.709255	0.000000
O	0.000000	5.709255	1.903090
O	1.903090	3.806165	1.903090
Re	0.000000	3.806165	0.000000
Fe	1.903090	5.709255	5.709255
O	1.903090	5.709255	3.806165
O	0.000000	5.709255	5.709255
O	1.903090	3.806165	5.709255
Re	0.000000	3.806165	3.806165
Fe	5.709255	1.903090	1.903090
O	5.709255	1.903090	0.000000
O	3.806165	1.903090	1.903090
O	5.709255	0.000000	1.903090
Re	3.806165	0.000000	0.000000
Fe	5.709255	1.903090	5.709255
O	5.709255	1.903090	3.806165
O	3.806165	1.903090	5.709255
O	5.709255	0.000000	5.709255
Re	3.806165	0.000000	3.806165
Fe	5.709255	5.709255	1.903090
O	5.709255	5.709255	0.000000
O	3.806165	5.709255	1.903090
O	5.709255	3.806165	1.903090
Re	3.806165	3.806165	0.000000
Fe	5.709255	5.709255	5.709255
O	5.709255	5.709255	3.806165
O	3.806165	5.709255	5.709255
O	5.709255	3.806165	5.709255
Re	3.806165	3.806165	3.806165
