40

Fe	0.000000	0.000000	0.000000
O	0.000000	1.954250	1.954250
O	1.954250	0.000000	1.954250
O	1.954250	1.954250	0.000000
Re	1.954250	1.954250	1.954250
Fe	0.000000	0.000000	3.908500
O	0.000000	1.954250	5.862750
O	1.954250	0.000000	5.862750
O	1.954250	1.954250	3.908500
Re	1.954250	1.954250	5.862750
Fe	0.000000	3.908500	0.000000
O	0.000000	5.862750	1.954250
O	1.954250	3.908500	1.954250
O	1.954250	5.862750	0.000000
Re	1.954250	5.862750	1.954250
Fe	0.000000	3.908500	3.908500
O	0.000000	5.862750	5.862750
O	1.954250	3.908500	5.862750
O	1.954250	5.862750	3.908500
Re	1.954250	5.862750	5.862750
Fe	3.908500	0.000000	0.000000
O	3.908500	1.954250	1.954250
O	5.862750	0.000000	1.954250
O	5.862750	1.954250	0.000000
Re	5.862750	1.954250	1.954250
Fe	3.908500	0.000000	3.908500
O	3.908500	1.954250	5.862750
O	5.862750	0.000000	5.862750
O	5.862750	1.954250	3.908500
Re	5.862750	1.954250	5.862750
Fe	3.908500	3.908500	0.000000
O	3.908500	5.862750	1.954250
O	5.862750	3.908500	1.954250
O	5.862750	5.862750	0.000000
Re	5.862750	5.862750	1.954250
Fe	3.908500	3.908500	3.908500
O	3.908500	5.862750	5.862750
O	5.862750	3.908500	5.862750
O	5.862750	5.862750	3.908500
Re	5.862750	5.862750	5.862750
