40

Co	1.892215	1.892215	1.892215
O	1.892215	1.892215	0.000000
O	0.000000	1.892215	1.892215
O	1.892215	0.000000	1.892215
Sr	0.000000	0.000000	0.000000
Co	1.892215	1.892215	5.676645
O	1.892215	1.892215	3.784430
O	0.000000	1.892215	5.676645
O	1.892215	0.000000	5.676645
Sr	0.000000	0.000000	3.784430
Co	1.892215	5.676645	1.892215
O	1.892215	5.676645	0.000000
O	0.000000	5.676645	1.892215
O	1.892215	3.784430	1.892215
Sr	0.000000	3.784430	0.000000
Co	1.892215	5.676645	5.676645
O	1.892215	5.676645	3.784430
O	0.000000	5.676645	5.676645
O	1.892215	3.784430	5.676645
Sr	0.000000	3.784430	3.784430
Co	5.676645	1.892215	1.892215
O	5.676645	1.892215	0.000000
O	3.784430	1.892215	1.892215
O	5.676645	0.000000	1.892215
Sr	3.784430	0.000000	0.000000
Co	5.676645	1.892215	5.676645
O	5.676645	1.892215	3.784430
O	3.784430	1.892215	5.676645
O	5.676645	0.000000	5.676645
Sr	3.784430	0.000000	3.784430
Co	5.676645	5.676645	1.892215
O	5.676645	5.676645	0.000000
O	3.784430	5.676645	1.892215
O	5.676645	3.784430	1.892215
Sr	3.784430	3.784430	0.000000
Co	5.676645	5.676645	5.676645
O	5.676645	5.676645	3.784430
O	3.784430	5.676645	5.676645
O	5.676645	3.784430	5.676645
Sr	3.784430	3.784430	3.784430
