112

K	0.000000	0.000000	0.000000
K	2.372850	-2.373528	-2.373528
O	3.773302	-0.972081	-0.972081
O	-0.972409	0.972081	-3.774986
O	0.972409	-0.972081	-3.774986
O	1.400441	1.401448	-1.401448
O	5.718120	0.972081	-0.972081
O	1.400441	3.345609	-3.345609
O	3.345260	3.345609	-1.401448
O	3.345260	1.401448	-3.345609
Zr	-1.186425	-1.186769	-3.560298
Zr	5.932136	-1.186769	-1.186769
Zr	1.186425	1.186769	-3.560298
Zr	3.559286	1.186769	-1.186769
K	4.745708	4.747064	0.000000
K	7.118559	2.373535	-2.373528
O	8.519010	3.774983	-0.972081
O	3.773299	5.719144	-3.774986
O	5.718118	3.774983	-3.774986
O	6.146149	6.148511	-1.401448
O	10.463829	5.719144	-0.972081
O	6.146149	8.092673	-3.345609
O	8.090968	8.092673	-1.401448
O	8.090968	6.148511	-3.345609
Zr	3.559283	3.560294	-3.560298
Zr	10.677844	3.560294	-1.186769
Zr	5.932134	5.933833	-3.560298
Zr	8.304994	5.933833	-1.186769
K	-4.745708	0.000000	-4.747064
K	-2.372858	-2.373528	-7.120592
O	-0.972407	-0.972081	-5.719144
O	-5.718118	0.972081	-8.522049
O	-3.773299	-0.972081	-8.522049
O	-3.345267	1.401448	-6.148511
O	0.972412	0.972081	-5.719144
O	-3.345267	3.345609	-8.092673
O	-1.400448	3.345609	-6.148511
O	-1.400448	1.401448	-8.092673
Zr	-5.932134	-1.186769	-8.307361
Zr	1.186428	-1.186769	-5.933833
Zr	-3.559283	1.186769	-8.307361
Zr	-1.186423	1.186769	-5.933833
K	0.000000	4.747064	-4.747064
K	2.372850	2.373535	-7.120592
O	3.773302	3.774983	-5.719144
O	-0.972409	5.719144	-8.522049
O	0.972409	3.774983	-8.522049
O	1.400441	6.148511	-6.148511
O	5.718120	5.719144	-5.719144
O	1.400441	8.092673	-8.092673
O	3.345260	8.092673	-6.148511
O	3.345260	6.148511	-8.092673
Zr	-1.186425	3.560294	-8.307361
Zr	5.932136	3.560294	-5.933833
Zr	1.186425	5.933833	-8.307361
Zr	3.559286	5.933833	-5.933833
K	4.745708	-4.747064	0.000000
K	7.118559	-7.120592	-2.373528
O	8.519010	-5.719144	-0.972081
O	3.773299	-3.774983	-3.774986
O	5.718118	-5.719144	-3.774986
O	6.146149	-3.345616	-1.401448
O	10.463829	-3.774983	-0.972081
O	6.146149	-1.401454	-3.345609
O	8.090968	-1.401454	-1.401448
O	8.090968	-3.345616	-3.345609
Zr	3.559283	-5.933833	-3.560298
Zr	10.677844	-5.933833	-1.186769
Zr	5.932134	-3.560294	-3.560298
Zr	8.304994	-3.560294	-1.186769
K	9.491417	0.000000	0.000000
K	11.864267	-2.373528	-2.373528
O	13.264718	-0.972081	-0.972081
O	8.519007	0.972081	-3.774986
O	10.463826	-0.972081	-3.774986
O	10.891858	1.401448	-1.401448
O	15.209537	0.972081	-0.972081
O	10.891858	3.345609	-3.345609
O	12.836676	3.345609	-1.401448
O	12.836676	1.401448	-3.345609
Zr	8.304991	-1.186769	-3.560298
Zr	15.423553	-1.186769	-1.186769
Zr	10.677842	1.186769	-3.560298
Zr	13.050702	1.186769	-1.186769
K	0.000000	-4.747064	-4.747064
K	2.372850	-7.120592	-7.120592
O	3.773302	-5.719144	-5.719144
O	-0.972409	-3.774983	-8.522049
O	0.972409	-5.719144	-8.522049
O	1.400441	-3.345616	-6.148511
O	5.718120	-3.774983	-5.719144
O	1.400441	-1.401454	-8.092673
O	3.345260	-1.401454	-6.148511
O	3.345260	-3.345616	-8.092673
Zr	-1.186425	-5.933833	-8.307361
Zr	5.932136	-5.933833	-5.933833
Zr	1.186425	-3.560294	-8.307361
Zr	3.559286	-3.560294	-5.933833
K	4.745708	0.000000	-4.747064
K	7.118559	-2.373528	-7.120592
O	8.519010	-0.972081	-5.719144
O	3.773299	0.972081	-8.522049
O	5.718118	-0.972081	-8.522049
O	6.146149	1.401448	-6.148511
O	10.463829	0.972081	-5.719144
O	6.146149	3.345609	-8.092673
O	8.090968	3.345609	-6.148511
O	8.090968	1.401448	-8.092673
Zr	3.559283	-1.186769	-8.307361
Zr	10.677844	-1.186769	-5.933833
Zr	5.932134	1.186769	-8.307361
Zr	8.304994	1.186769	-5.933833
