40

Nb	2.008261	2.008261	2.008261
O	0.000000	2.008261	2.008261
O	2.008261	0.000000	2.008261
O	2.008261	2.008261	0.000000
Os	0.000000	0.000000	0.000000
Nb	2.008261	2.008261	6.024782
O	0.000000	2.008261	6.024782
O	2.008261	0.000000	6.024782
O	2.008261	2.008261	4.016521
Os	0.000000	0.000000	4.016521
Nb	2.008261	6.024782	2.008261
O	0.000000	6.024782	2.008261
O	2.008261	4.016521	2.008261
O	2.008261	6.024782	0.000000
Os	0.000000	4.016521	0.000000
Nb	2.008261	6.024782	6.024782
O	0.000000	6.024782	6.024782
O	2.008261	4.016521	6.024782
O	2.008261	6.024782	4.016521
Os	0.000000	4.016521	4.016521
Nb	6.024782	2.008261	2.008261
O	4.016521	2.008261	2.008261
O	6.024782	0.000000	2.008261
O	6.024782	2.008261	0.000000
Os	4.016521	0.000000	0.000000
Nb	6.024782	2.008261	6.024782
O	4.016521	2.008261	6.024782
O	6.024782	0.000000	6.024782
O	6.024782	2.008261	4.016521
Os	4.016521	0.000000	4.016521
Nb	6.024782	6.024782	2.008261
O	4.016521	6.024782	2.008261
O	6.024782	4.016521	2.008261
O	6.024782	6.024782	0.000000
Os	4.016521	4.016521	0.000000
Nb	6.024782	6.024782	6.024782
O	4.016521	6.024782	6.024782
O	6.024782	4.016521	6.024782
O	6.024782	6.024782	4.016521
Os	4.016521	4.016521	4.016521
