40

O	2.004602	2.004602	0.000000
O	0.000000	2.004602	2.004753
O	2.004602	0.000000	2.004753
Na	0.000000	0.000000	0.000000
Nb	2.004602	2.004602	2.004753
O	2.004602	2.004602	4.009506
O	0.000000	2.004602	6.014259
O	2.004602	0.000000	6.014259
Na	0.000000	0.000000	4.009506
Nb	2.004602	2.004602	6.014259
O	2.004602	6.013805	0.000000
O	0.000000	6.013805	2.004753
O	2.004602	4.009203	2.004753
Na	0.000000	4.009203	0.000000
Nb	2.004602	6.013805	2.004753
O	2.004602	6.013805	4.009506
O	0.000000	6.013805	6.014259
O	2.004602	4.009203	6.014259
Na	0.000000	4.009203	4.009506
Nb	2.004602	6.013805	6.014259
O	6.013805	2.004602	0.000000
O	4.009203	2.004602	2.004753
O	6.013805	0.000000	2.004753
Na	4.009203	0.000000	0.000000
Nb	6.013805	2.004602	2.004753
O	6.013805	2.004602	4.009506
O	4.009203	2.004602	6.014259
O	6.013805	0.000000	6.014259
Na	4.009203	0.000000	4.009506
Nb	6.013805	2.004602	6.014259
O	6.013805	6.013805	0.000000
O	4.009203	6.013805	2.004753
O	6.013805	4.009203	2.004753
Na	4.009203	4.009203	0.000000
Nb	6.013805	6.013805	2.004753
O	6.013805	6.013805	4.009506
O	4.009203	6.013805	6.014259
O	6.013805	4.009203	6.014259
Na	4.009203	4.009203	4.009506
Nb	6.013805	6.013805	6.014259
