40

O	0.000000	2.003892	2.003892
O	2.003892	0.000000	2.003892
O	2.003892	2.003892	0.000000
Na	0.000000	0.000000	0.000000
Nb	2.003892	2.003892	2.003892
O	0.000000	2.003892	6.011677
O	2.003892	0.000000	6.011677
O	2.003892	2.003892	4.007785
Na	0.000000	0.000000	4.007785
Nb	2.003892	2.003892	6.011677
O	0.000000	6.011677	2.003892
O	2.003892	4.007785	2.003892
O	2.003892	6.011677	0.000000
Na	0.000000	4.007785	0.000000
Nb	2.003892	6.011677	2.003892
O	0.000000	6.011677	6.011677
O	2.003892	4.007785	6.011677
O	2.003892	6.011677	4.007785
Na	0.000000	4.007785	4.007785
Nb	2.003892	6.011677	6.011677
O	4.007785	2.003892	2.003892
O	6.011677	0.000000	2.003892
O	6.011677	2.003892	0.000000
Na	4.007785	0.000000	0.000000
Nb	6.011677	2.003892	2.003892
O	4.007785	2.003892	6.011677
O	6.011677	0.000000	6.011677
O	6.011677	2.003892	4.007785
Na	4.007785	0.000000	4.007785
Nb	6.011677	2.003892	6.011677
O	4.007785	6.011677	2.003892
O	6.011677	4.007785	2.003892
O	6.011677	6.011677	0.000000
Na	4.007785	4.007785	0.000000
Nb	6.011677	6.011677	2.003892
O	4.007785	6.011677	6.011677
O	6.011677	4.007785	6.011677
O	6.011677	6.011677	4.007785
Na	4.007785	4.007785	4.007785
Nb	6.011677	6.011677	6.011677
