40

O	1.989695	1.989695	0.000000
O	1.989695	0.000000	1.989695
O	0.000000	1.989695	1.989695
Pb	0.000000	0.000000	0.000000
Rh	1.989695	1.989695	1.989695
O	1.989695	1.989695	3.979394
O	1.989695	0.000000	5.969088
O	0.000000	1.989695	5.969088
Pb	0.000000	0.000000	3.979394
Rh	1.989695	1.989695	5.969088
O	1.989695	5.969088	0.000000
O	1.989695	3.979394	1.989695
O	0.000000	5.969088	1.989695
Pb	0.000000	3.979394	0.000000
Rh	1.989695	5.969088	1.989695
O	1.989695	5.969088	3.979394
O	1.989695	3.979394	5.969088
O	0.000000	5.969088	5.969088
Pb	0.000000	3.979394	3.979394
Rh	1.989695	5.969088	5.969088
O	5.969088	1.989695	0.000000
O	5.969088	0.000000	1.989695
O	3.979394	1.989695	1.989695
Pb	3.979394	0.000000	0.000000
Rh	5.969088	1.989695	1.989695
O	5.969088	1.989695	3.979394
O	5.969088	0.000000	5.969088
O	3.979394	1.989695	5.969088
Pb	3.979394	0.000000	3.979394
Rh	5.969088	1.989695	5.969088
O	5.969088	5.969088	0.000000
O	5.969088	3.979394	1.989695
O	3.979394	5.969088	1.989695
Pb	3.979394	3.979394	0.000000
Rh	5.969088	5.969088	1.989695
O	5.969088	5.969088	3.979394
O	5.969088	3.979394	5.969088
O	3.979394	5.969088	5.969088
Pb	3.979394	3.979394	3.979394
Rh	5.969088	5.969088	5.969088
