40

O	2.092034	2.092034	0.000000
O	0.000000	2.092034	2.092034
O	2.092034	0.000000	2.092034
Te	2.092034	2.092034	2.092034
Yb	0.000000	0.000000	0.000000
O	2.092034	2.092034	4.184069
O	0.000000	2.092034	6.276103
O	2.092034	0.000000	6.276103
Te	2.092034	2.092034	6.276103
Yb	0.000000	0.000000	4.184069
O	2.092034	6.276103	0.000000
O	0.000000	6.276103	2.092034
O	2.092034	4.184069	2.092034
Te	2.092034	6.276103	2.092034
Yb	0.000000	4.184069	0.000000
O	2.092034	6.276103	4.184069
O	0.000000	6.276103	6.276103
O	2.092034	4.184069	6.276103
Te	2.092034	6.276103	6.276103
Yb	0.000000	4.184069	4.184069
O	6.276103	2.092034	0.000000
O	4.184069	2.092034	2.092034
O	6.276103	0.000000	2.092034
Te	6.276103	2.092034	2.092034
Yb	4.184069	0.000000	0.000000
O	6.276103	2.092034	4.184069
O	4.184069	2.092034	6.276103
O	6.276103	0.000000	6.276103
Te	6.276103	2.092034	6.276103
Yb	4.184069	0.000000	4.184069
O	6.276103	6.276103	0.000000
O	4.184069	6.276103	2.092034
O	6.276103	4.184069	2.092034
Te	6.276103	6.276103	2.092034
Yb	4.184069	4.184069	0.000000
O	6.276103	6.276103	4.184069
O	4.184069	6.276103	6.276103
O	6.276103	4.184069	6.276103
Te	6.276103	6.276103	6.276103
Yb	4.184069	4.184069	4.184069
