40

Ba	2.265551	2.265551	2.265551
Be	0.000000	0.000000	0.000000
O	2.265551	2.265551	0.000000
O	2.265551	0.000000	2.265551
O	0.000000	2.265551	2.265551
Ba	2.265551	2.265551	6.796655
Be	0.000000	0.000000	4.531104
O	2.265551	2.265551	4.531104
O	2.265551	0.000000	6.796655
O	0.000000	2.265551	6.796655
Ba	2.265551	6.796655	2.265551
Be	0.000000	4.531104	0.000000
O	2.265551	6.796655	0.000000
O	2.265551	4.531104	2.265551
O	0.000000	6.796655	2.265551
Ba	2.265551	6.796655	6.796655
Be	0.000000	4.531104	4.531104
O	2.265551	6.796655	4.531104
O	2.265551	4.531104	6.796655
O	0.000000	6.796655	6.796655
Ba	6.796655	2.265551	2.265551
Be	4.531104	0.000000	0.000000
O	6.796655	2.265551	0.000000
O	6.796655	0.000000	2.265551
O	4.531104	2.265551	2.265551
Ba	6.796655	2.265551	6.796655
Be	4.531104	0.000000	4.531104
O	6.796655	2.265551	4.531104
O	6.796655	0.000000	6.796655
O	4.531104	2.265551	6.796655
Ba	6.796655	6.796655	2.265551
Be	4.531104	4.531104	0.000000
O	6.796655	6.796655	0.000000
O	6.796655	4.531104	2.265551
O	4.531104	6.796655	2.265551
Ba	6.796655	6.796655	6.796655
Be	4.531104	4.531104	4.531104
O	6.796655	6.796655	4.531104
O	6.796655	4.531104	6.796655
O	4.531104	6.796655	6.796655
