40

Ba	0.000000	0.000000	0.000000
Be	1.946632	1.946632	1.946632
O	0.000000	1.946632	1.946632
O	1.946632	0.000000	1.946632
O	1.946632	1.946632	0.000000
Ba	0.000000	0.000000	3.893265
Be	1.946632	1.946632	5.839897
O	0.000000	1.946632	5.839897
O	1.946632	0.000000	5.839897
O	1.946632	1.946632	3.893265
Ba	0.000000	3.893265	0.000000
Be	1.946632	5.839897	1.946632
O	0.000000	5.839897	1.946632
O	1.946632	3.893265	1.946632
O	1.946632	5.839897	0.000000
Ba	0.000000	3.893265	3.893265
Be	1.946632	5.839897	5.839897
O	0.000000	5.839897	5.839897
O	1.946632	3.893265	5.839897
O	1.946632	5.839897	3.893265
Ba	3.893265	0.000000	0.000000
Be	5.839897	1.946632	1.946632
O	3.893265	1.946632	1.946632
O	5.839897	0.000000	1.946632
O	5.839897	1.946632	0.000000
Ba	3.893265	0.000000	3.893265
Be	5.839897	1.946632	5.839897
O	3.893265	1.946632	5.839897
O	5.839897	0.000000	5.839897
O	5.839897	1.946632	3.893265
Ba	3.893265	3.893265	0.000000
Be	5.839897	5.839897	1.946632
O	3.893265	5.839897	1.946632
O	5.839897	3.893265	1.946632
O	5.839897	5.839897	0.000000
Ba	3.893265	3.893265	3.893265
Be	5.839897	5.839897	5.839897
O	3.893265	5.839897	5.839897
O	5.839897	3.893265	5.839897
O	5.839897	5.839897	3.893265
