40

O	0.000000	2.019537	2.019537
O	2.019537	0.000000	2.019537
O	2.019537	2.019537	0.000000
Tc	2.019537	2.019537	2.019537
Te	0.000000	0.000000	0.000000
O	0.000000	2.019537	6.058611
O	2.019537	0.000000	6.058611
O	2.019537	2.019537	4.039074
Tc	2.019537	2.019537	6.058611
Te	0.000000	0.000000	4.039074
O	0.000000	6.058611	2.019537
O	2.019537	4.039074	2.019537
O	2.019537	6.058611	0.000000
Tc	2.019537	6.058611	2.019537
Te	0.000000	4.039074	0.000000
O	0.000000	6.058611	6.058611
O	2.019537	4.039074	6.058611
O	2.019537	6.058611	4.039074
Tc	2.019537	6.058611	6.058611
Te	0.000000	4.039074	4.039074
O	4.039074	2.019537	2.019537
O	6.058611	0.000000	2.019537
O	6.058611	2.019537	0.000000
Tc	6.058611	2.019537	2.019537
Te	4.039074	0.000000	0.000000
O	4.039074	2.019537	6.058611
O	6.058611	0.000000	6.058611
O	6.058611	2.019537	4.039074
Tc	6.058611	2.019537	6.058611
Te	4.039074	0.000000	4.039074
O	4.039074	6.058611	2.019537
O	6.058611	4.039074	2.019537
O	6.058611	6.058611	0.000000
Tc	6.058611	6.058611	2.019537
Te	4.039074	4.039074	0.000000
O	4.039074	6.058611	6.058611
O	6.058611	4.039074	6.058611
O	6.058611	6.058611	4.039074
Tc	6.058611	6.058611	6.058611
Te	4.039074	4.039074	4.039074
