40

Ce	2.259548	2.259548	2.259548
Mn	0.000000	0.000000	0.000000
O	2.259548	2.259548	0.000000
O	2.259548	0.000000	2.259548
O	0.000000	2.259548	2.259548
Ce	2.259548	2.259548	6.778644
Mn	0.000000	0.000000	4.519096
O	2.259548	2.259548	4.519096
O	2.259548	0.000000	6.778644
O	0.000000	2.259548	6.778644
Ce	2.259548	6.778644	2.259548
Mn	0.000000	4.519096	0.000000
O	2.259548	6.778644	0.000000
O	2.259548	4.519096	2.259548
O	0.000000	6.778644	2.259548
Ce	2.259548	6.778644	6.778644
Mn	0.000000	4.519096	4.519096
O	2.259548	6.778644	4.519096
O	2.259548	4.519096	6.778644
O	0.000000	6.778644	6.778644
Ce	6.778644	2.259548	2.259548
Mn	4.519096	0.000000	0.000000
O	6.778644	2.259548	0.000000
O	6.778644	0.000000	2.259548
O	4.519096	2.259548	2.259548
Ce	6.778644	2.259548	6.778644
Mn	4.519096	0.000000	4.519096
O	6.778644	2.259548	4.519096
O	6.778644	0.000000	6.778644
O	4.519096	2.259548	6.778644
Ce	6.778644	6.778644	2.259548
Mn	4.519096	4.519096	0.000000
O	6.778644	6.778644	0.000000
O	6.778644	4.519096	2.259548
O	4.519096	6.778644	2.259548
Ce	6.778644	6.778644	6.778644
Mn	4.519096	4.519096	4.519096
O	6.778644	6.778644	4.519096
O	6.778644	4.519096	6.778644
O	4.519096	6.778644	6.778644
