40

F	0.000000	2.000494	2.000494
F	2.000494	0.000000	2.000494
F	2.000494	2.000494	0.000000
O	0.000000	0.000000	0.000000
Os	2.000494	2.000494	2.000494
F	0.000000	2.000494	6.001483
F	2.000494	0.000000	6.001483
F	2.000494	2.000494	4.000988
O	0.000000	0.000000	4.000988
Os	2.000494	2.000494	6.001483
F	0.000000	6.001483	2.000494
F	2.000494	4.000988	2.000494
F	2.000494	6.001483	0.000000
O	0.000000	4.000988	0.000000
Os	2.000494	6.001483	2.000494
F	0.000000	6.001483	6.001483
F	2.000494	4.000988	6.001483
F	2.000494	6.001483	4.000988
O	0.000000	4.000988	4.000988
Os	2.000494	6.001483	6.001483
F	4.000988	2.000494	2.000494
F	6.001483	0.000000	2.000494
F	6.001483	2.000494	0.000000
O	4.000988	0.000000	0.000000
Os	6.001483	2.000494	2.000494
F	4.000988	2.000494	6.001483
F	6.001483	0.000000	6.001483
F	6.001483	2.000494	4.000988
O	4.000988	0.000000	4.000988
Os	6.001483	2.000494	6.001483
F	4.000988	6.001483	2.000494
F	6.001483	4.000988	2.000494
F	6.001483	6.001483	0.000000
O	4.000988	4.000988	0.000000
Os	6.001483	6.001483	2.000494
F	4.000988	6.001483	6.001483
F	6.001483	4.000988	6.001483
F	6.001483	6.001483	4.000988
O	4.000988	4.000988	4.000988
Os	6.001483	6.001483	6.001483
