40

Cr	0.000000	0.000000	0.000000
O	1.969804	1.969804	0.000000
O	1.969804	0.000000	1.969804
O	0.000000	1.969804	1.969804
Pt	1.969804	1.969804	1.969804
Cr	0.000000	0.000000	3.939616
O	1.969804	1.969804	3.939616
O	1.969804	0.000000	5.909419
O	0.000000	1.969804	5.909419
Pt	1.969804	1.969804	5.909419
Cr	0.000000	3.939616	0.000000
O	1.969804	5.909419	0.000000
O	1.969804	3.939616	1.969804
O	0.000000	5.909419	1.969804
Pt	1.969804	5.909419	1.969804
Cr	0.000000	3.939616	3.939616
O	1.969804	5.909419	3.939616
O	1.969804	3.939616	5.909419
O	0.000000	5.909419	5.909419
Pt	1.969804	5.909419	5.909419
Cr	3.939616	0.000000	0.000000
O	5.909419	1.969804	0.000000
O	5.909419	0.000000	1.969804
O	3.939616	1.969804	1.969804
Pt	5.909419	1.969804	1.969804
Cr	3.939616	0.000000	3.939616
O	5.909419	1.969804	3.939616
O	5.909419	0.000000	5.909419
O	3.939616	1.969804	5.909419
Pt	5.909419	1.969804	5.909419
Cr	3.939616	3.939616	0.000000
O	5.909419	5.909419	0.000000
O	5.909419	3.939616	1.969804
O	3.939616	5.909419	1.969804
Pt	5.909419	5.909419	1.969804
Cr	3.939616	3.939616	3.939616
O	5.909419	5.909419	3.939616
O	5.909419	3.939616	5.909419
O	3.939616	5.909419	5.909419
Pt	5.909419	5.909419	5.909419
