40

Ce	0.000000	0.000000	0.000000
O	2.133930	0.000000	2.133930
O	0.000000	2.133930	2.133930
O	2.133930	2.133930	0.000000
Tl	2.133930	2.133930	2.133930
Ce	0.000000	0.000000	4.267852
O	2.133930	0.000000	6.401782
O	0.000000	2.133930	6.401782
O	2.133930	2.133930	4.267852
Tl	2.133930	2.133930	6.401782
Ce	0.000000	4.267852	0.000000
O	2.133930	4.267852	2.133930
O	0.000000	6.401782	2.133930
O	2.133930	6.401782	0.000000
Tl	2.133930	6.401782	2.133930
Ce	0.000000	4.267852	4.267852
O	2.133930	4.267852	6.401782
O	0.000000	6.401782	6.401782
O	2.133930	6.401782	4.267852
Tl	2.133930	6.401782	6.401782
Ce	4.267852	0.000000	0.000000
O	6.401782	0.000000	2.133930
O	4.267852	2.133930	2.133930
O	6.401782	2.133930	0.000000
Tl	6.401782	2.133930	2.133930
Ce	4.267852	0.000000	4.267852
O	6.401782	0.000000	6.401782
O	4.267852	2.133930	6.401782
O	6.401782	2.133930	4.267852
Tl	6.401782	2.133930	6.401782
Ce	4.267852	4.267852	0.000000
O	6.401782	4.267852	2.133930
O	4.267852	6.401782	2.133930
O	6.401782	6.401782	0.000000
Tl	6.401782	6.401782	2.133930
Ce	4.267852	4.267852	4.267852
O	6.401782	4.267852	6.401782
O	4.267852	6.401782	6.401782
O	6.401782	6.401782	4.267852
Tl	6.401782	6.401782	6.401782
