112

O	1.160639	1.170416	-1.170416
O	3.837011	-1.504305	-1.504305
O	-1.515742	1.504305	-3.845138
O	1.515742	-1.504305	-3.845138
O	1.160639	4.179036	-4.179036
O	4.192124	1.170416	-4.179036
O	4.192124	4.179036	-1.170416
O	6.868506	1.504305	-1.504305
Pu	0.000000	0.000000	0.000000
Pu	2.676382	-2.674721	-2.674721
Rb	-1.338186	-1.337366	-4.012087
Rb	6.690949	-1.337365	-1.337365
Rb	1.338186	1.337365	-4.012087
Rb	4.014568	1.337365	-1.337365
O	6.513398	6.519862	-1.170416
O	9.189770	3.845141	-1.504305
O	3.837016	6.853750	-3.845138
O	6.868501	3.845141	-3.845138
O	6.513398	9.528481	-4.179036
O	9.544883	6.519862	-4.179036
O	9.544883	9.528481	-1.170416
O	12.221264	6.853750	-1.504305
Pu	5.352759	5.349446	0.000000
Pu	8.029140	2.674724	-2.674721
Rb	4.014573	4.012080	-4.012087
Rb	12.043708	4.012080	-1.337365
Rb	6.690945	6.686811	-4.012087
Rb	9.367326	6.686811	-1.337365
O	-4.192119	1.170416	-6.519862
O	-1.515748	-1.504305	-6.853750
O	-6.868501	1.504305	-9.194583
O	-3.837016	-1.504305	-9.194583
O	-4.192119	4.179036	-9.528481
O	-1.160635	1.170416	-9.528481
O	-1.160635	4.179036	-6.519862
O	1.515747	1.504305	-6.853750
Pu	-5.352759	0.000000	-5.349446
Pu	-2.676377	-2.674721	-8.024167
Rb	-6.690945	-1.337366	-9.361532
Rb	1.338190	-1.337365	-6.686811
Rb	-4.014573	1.337365	-9.361532
Rb	-1.338191	1.337365	-6.686811
O	1.160639	6.519862	-6.519862
O	3.837011	3.845141	-6.853750
O	-1.515742	6.853750	-9.194583
O	1.515742	3.845141	-9.194583
O	1.160639	9.528481	-9.528481
O	4.192124	6.519862	-9.528481
O	4.192124	9.528481	-6.519862
O	6.868506	6.853750	-6.853750
Pu	0.000000	5.349446	-5.349446
Pu	2.676382	2.674724	-8.024167
Rb	-1.338186	4.012080	-9.361532
Rb	6.690949	4.012080	-6.686811
Rb	1.338186	6.686811	-9.361532
Rb	4.014568	6.686811	-6.686811
O	6.513398	-4.179029	-1.170416
O	9.189770	-6.853750	-1.504305
O	3.837016	-3.845141	-3.845138
O	6.868501	-6.853750	-3.845138
O	6.513398	-1.170410	-4.179036
O	9.544883	-4.179029	-4.179036
O	9.544883	-1.170410	-1.170416
O	12.221264	-3.845141	-1.504305
Pu	5.352759	-5.349446	0.000000
Pu	8.029140	-8.024167	-2.674721
Rb	4.014573	-6.686811	-4.012087
Rb	12.043708	-6.686811	-1.337365
Rb	6.690945	-4.012080	-4.012087
Rb	9.367326	-4.012080	-1.337365
O	11.866157	1.170416	-1.170416
O	14.542529	-1.504305	-1.504305
O	9.189775	1.504305	-3.845138
O	12.221260	-1.504305	-3.845138
O	11.866157	4.179036	-4.179036
O	14.897642	1.170416	-4.179036
O	14.897642	4.179036	-1.170416
O	17.574023	1.504305	-1.504305
Pu	10.705518	0.000000	0.000000
Pu	13.381899	-2.674721	-2.674721
Rb	9.367332	-1.337366	-4.012087
Rb	17.396467	-1.337365	-1.337365
Rb	12.043703	1.337365	-4.012087
Rb	14.720085	1.337365	-1.337365
O	1.160639	-4.179029	-6.519862
O	3.837011	-6.853750	-6.853750
O	-1.515742	-3.845141	-9.194583
O	1.515742	-6.853750	-9.194583
O	1.160639	-1.170410	-9.528481
O	4.192124	-4.179029	-9.528481
O	4.192124	-1.170410	-6.519862
O	6.868506	-3.845141	-6.853750
Pu	0.000000	-5.349446	-5.349446
Pu	2.676382	-8.024167	-8.024167
Rb	-1.338186	-6.686811	-9.361532
Rb	6.690949	-6.686811	-6.686811
Rb	1.338186	-4.012080	-9.361532
Rb	4.014568	-4.012080	-6.686811
O	6.513398	1.170416	-6.519862
O	9.189770	-1.504305	-6.853750
O	3.837016	1.504305	-9.194583
O	6.868501	-1.504305	-9.194583
O	6.513398	4.179036	-9.528481
O	9.544883	1.170416	-9.528481
O	9.544883	4.179036	-6.519862
O	12.221264	1.504305	-6.853750
Pu	5.352759	0.000000	-5.349446
Pu	8.029140	-2.674721	-8.024167
Rb	4.014573	-1.337366	-9.361532
Rb	12.043708	-1.337365	-6.686811
Rb	6.690945	1.337365	-9.361532
Rb	9.367326	1.337365	-6.686811
