112

O	1.158695	1.169159	-1.169159
O	3.816329	-1.491339	-1.491339
O	-1.498949	1.491339	-3.829656
O	1.498949	-1.491339	-3.829656
O	1.158695	4.151856	-4.151856
O	4.156593	4.151856	-1.169159
O	4.156593	1.169159	-4.151856
O	6.814248	1.491339	-1.491339
Pu	0.000000	0.000000	0.000000
Pu	2.657644	-2.660498	-2.660498
Rb	-1.328822	-1.330259	-3.990756
Rb	6.644111	-1.330259	-1.330259
Rb	1.328822	1.330259	-3.990756
Rb	3.986466	1.330259	-1.330259
O	6.473982	6.490159	-1.169159
O	9.131617	3.829662	-1.491339
O	3.816338	6.812340	-3.829656
O	6.814236	3.829662	-3.829656
O	6.473982	9.472857	-4.151856
O	9.471881	9.472857	-1.169159
O	9.471881	6.490159	-4.151856
O	12.129535	6.812340	-1.491339
Pu	5.315287	5.321001	0.000000
Pu	7.972932	2.660503	-2.660498
Rb	3.986465	3.990742	-3.990756
Rb	11.959398	3.990742	-1.330259
Rb	6.644109	6.651259	-3.990756
Rb	9.301754	6.651259	-1.330259
O	-4.156592	1.169159	-6.490159
O	-1.498958	-1.491339	-6.812340
O	-6.814237	1.491339	-9.150657
O	-3.816338	-1.491339	-9.150657
O	-4.156592	4.151856	-9.472857
O	-1.158694	4.151856	-6.490159
O	-1.158694	1.169159	-9.472857
O	1.498960	1.491339	-6.812340
Pu	-5.315287	0.000000	-5.321001
Pu	-2.657643	-2.660498	-7.981498
Rb	-6.644109	-1.330259	-9.311757
Rb	1.328823	-1.330259	-6.651259
Rb	-3.986465	1.330259	-9.311757
Rb	-1.328821	1.330259	-6.651259
O	1.158695	6.490159	-6.490159
O	3.816329	3.829662	-6.812340
O	-1.498949	6.812340	-9.150657
O	1.498949	3.829662	-9.150657
O	1.158695	9.472857	-9.472857
O	4.156593	9.472857	-6.490159
O	4.156593	6.490159	-9.472857
O	6.814248	6.812340	-6.812340
Pu	0.000000	5.321001	-5.321001
Pu	2.657644	2.660503	-7.981498
Rb	-1.328822	3.990742	-9.311757
Rb	6.644111	3.990742	-6.651259
Rb	1.328822	6.651259	-9.311757
Rb	3.986466	6.651259	-6.651259
O	6.473982	-4.151842	-1.169159
O	9.131617	-6.812340	-1.491339
O	3.816338	-3.829662	-3.829656
O	6.814236	-6.812340	-3.829656
O	6.473982	-1.169144	-4.151856
O	9.471881	-1.169144	-1.169159
O	9.471881	-4.151842	-4.151856
O	12.129535	-3.829662	-1.491339
Pu	5.315287	-5.321001	0.000000
Pu	7.972932	-7.981498	-2.660498
Rb	3.986465	-6.651259	-3.990756
Rb	11.959398	-6.651259	-1.330259
Rb	6.644109	-3.990742	-3.990756
Rb	9.301754	-3.990742	-1.330259
O	11.789270	1.169159	-1.169159
O	14.446904	-1.491339	-1.491339
O	9.131625	1.491339	-3.829656
O	12.129524	-1.491339	-3.829656
O	11.789270	4.151856	-4.151856
O	14.787168	4.151856	-1.169159
O	14.787168	1.169159	-4.151856
O	17.444822	1.491339	-1.491339
Pu	10.630575	0.000000	0.000000
Pu	13.288219	-2.660498	-2.660498
Rb	9.301752	-1.330259	-3.990756
Rb	17.274685	-1.330259	-1.330259
Rb	11.959397	1.330259	-3.990756
Rb	14.617041	1.330259	-1.330259
O	1.158695	-4.151842	-6.490159
O	3.816329	-6.812340	-6.812340
O	-1.498949	-3.829662	-9.150657
O	1.498949	-6.812340	-9.150657
O	1.158695	-1.169144	-9.472857
O	4.156593	-1.169144	-6.490159
O	4.156593	-4.151842	-9.472857
O	6.814248	-3.829662	-6.812340
Pu	0.000000	-5.321001	-5.321001
Pu	2.657644	-7.981498	-7.981498
Rb	-1.328822	-6.651259	-9.311757
Rb	6.644111	-6.651259	-6.651259
Rb	1.328822	-3.990742	-9.311757
Rb	3.986466	-3.990742	-6.651259
O	6.473982	1.169159	-6.490159
O	9.131617	-1.491339	-6.812340
O	3.816338	1.491339	-9.150657
O	6.814236	-1.491339	-9.150657
O	6.473982	4.151856	-9.472857
O	9.471881	4.151856	-6.490159
O	9.471881	1.169159	-9.472857
O	12.129535	1.491339	-6.812340
Pu	5.315287	0.000000	-5.321001
Pu	7.972932	-2.660498	-7.981498
Rb	3.986465	-1.330259	-9.311757
Rb	11.959398	-1.330259	-6.651259
Rb	6.644109	1.330259	-9.311757
Rb	9.301754	1.330259	-6.651259
