40

Cr	0.000000	0.000000	0.000000
O	0.000000	1.873229	1.873229
O	1.873229	0.000000	1.873229
O	1.873229	1.873229	0.000000
S	1.873229	1.873229	1.873229
Cr	0.000000	0.000000	3.746458
O	0.000000	1.873229	5.619686
O	1.873229	0.000000	5.619686
O	1.873229	1.873229	3.746458
S	1.873229	1.873229	5.619686
Cr	0.000000	3.746458	0.000000
O	0.000000	5.619686	1.873229
O	1.873229	3.746458	1.873229
O	1.873229	5.619686	0.000000
S	1.873229	5.619686	1.873229
Cr	0.000000	3.746458	3.746458
O	0.000000	5.619686	5.619686
O	1.873229	3.746458	5.619686
O	1.873229	5.619686	3.746458
S	1.873229	5.619686	5.619686
Cr	3.746458	0.000000	0.000000
O	3.746458	1.873229	1.873229
O	5.619686	0.000000	1.873229
O	5.619686	1.873229	0.000000
S	5.619686	1.873229	1.873229
Cr	3.746458	0.000000	3.746458
O	3.746458	1.873229	5.619686
O	5.619686	0.000000	5.619686
O	5.619686	1.873229	3.746458
S	5.619686	1.873229	5.619686
Cr	3.746458	3.746458	0.000000
O	3.746458	5.619686	1.873229
O	5.619686	3.746458	1.873229
O	5.619686	5.619686	0.000000
S	5.619686	5.619686	1.873229
Cr	3.746458	3.746458	3.746458
O	3.746458	5.619686	5.619686
O	5.619686	3.746458	5.619686
O	5.619686	5.619686	3.746458
S	5.619686	5.619686	5.619686
