40

O	0.000000	2.073960	2.073960
O	2.073960	0.000000	2.073960
O	2.073960	2.073960	0.000000
Ru	0.000000	0.000000	0.000000
Zr	2.073960	2.073960	2.073960
O	0.000000	2.073960	6.221881
O	2.073960	0.000000	6.221881
O	2.073960	2.073960	4.147921
Ru	0.000000	0.000000	4.147921
Zr	2.073960	2.073960	6.221881
O	0.000000	6.221881	2.073960
O	2.073960	4.147921	2.073960
O	2.073960	6.221881	0.000000
Ru	0.000000	4.147921	0.000000
Zr	2.073960	6.221881	2.073960
O	0.000000	6.221881	6.221881
O	2.073960	4.147921	6.221881
O	2.073960	6.221881	4.147921
Ru	0.000000	4.147921	4.147921
Zr	2.073960	6.221881	6.221881
O	4.147921	2.073960	2.073960
O	6.221881	0.000000	2.073960
O	6.221881	2.073960	0.000000
Ru	4.147921	0.000000	0.000000
Zr	6.221881	2.073960	2.073960
O	4.147921	2.073960	6.221881
O	6.221881	0.000000	6.221881
O	6.221881	2.073960	4.147921
Ru	4.147921	0.000000	4.147921
Zr	6.221881	2.073960	6.221881
O	4.147921	6.221881	2.073960
O	6.221881	4.147921	2.073960
O	6.221881	6.221881	0.000000
Ru	4.147921	4.147921	0.000000
Zr	6.221881	6.221881	2.073960
O	4.147921	6.221881	6.221881
O	6.221881	4.147921	6.221881
O	6.221881	6.221881	4.147921
Ru	4.147921	4.147921	4.147921
Zr	6.221881	6.221881	6.221881
