112

Ir	0.000000	0.000000	0.000000
Ir	2.088386	-2.088803	-2.088803
O	3.335926	-0.840715	-0.840715
O	-0.840845	0.840715	-3.336892
O	0.840845	-0.840715	-3.336892
O	1.247540	1.248088	-1.248088
O	5.017617	0.840715	-0.840715
O	1.247540	2.929519	-2.929519
O	2.929231	2.929519	-1.248088
O	2.929231	1.248088	-2.929519
Si	-1.044193	-1.044402	-3.133205
Si	3.132579	1.044402	-1.044402
Si	5.220965	-1.044402	-1.044402
Si	1.044193	1.044402	-3.133205
Ir	4.176772	4.177607	0.000000
Ir	6.265158	2.088803	-2.088803
O	7.512698	3.336892	-0.840715
O	3.335926	5.018322	-3.336892
O	5.017617	3.336892	-3.336892
O	5.424312	5.425695	-1.248088
O	9.194389	5.018322	-0.840715
O	5.424312	7.107126	-2.929519
O	7.106003	7.107126	-1.248088
O	7.106003	5.425695	-2.929519
Si	3.132579	3.133205	-3.133205
Si	7.309350	5.222009	-1.044402
Si	9.397736	3.133205	-1.044402
Si	5.220965	5.222009	-3.133205
Ir	-4.176772	0.000000	-4.177607
Ir	-2.088386	-2.088803	-6.266410
O	-0.840845	-0.840715	-5.018322
O	-5.017617	0.840715	-7.514498
O	-3.335926	-0.840715	-7.514498
O	-2.929231	1.248088	-5.425695
O	0.840845	0.840715	-5.018322
O	-2.929231	2.929519	-7.107126
O	-1.247540	2.929519	-5.425695
O	-1.247540	1.248088	-7.107126
Si	-5.220965	-1.044402	-7.310812
Si	-1.044193	1.044402	-5.222009
Si	1.044193	-1.044402	-5.222009
Si	-3.132579	1.044402	-7.310812
Ir	0.000000	4.177607	-4.177607
Ir	2.088386	2.088803	-6.266410
O	3.335926	3.336892	-5.018322
O	-0.840845	5.018322	-7.514498
O	0.840845	3.336892	-7.514498
O	1.247540	5.425695	-5.425695
O	5.017617	5.018322	-5.018322
O	1.247540	7.107126	-7.107126
O	2.929231	7.107126	-5.425695
O	2.929231	5.425695	-7.107126
Si	-1.044193	3.133205	-7.310812
Si	3.132579	5.222009	-5.222009
Si	5.220965	3.133205	-5.222009
Si	1.044193	5.222009	-7.310812
Ir	4.176772	-4.177607	0.000000
Ir	6.265158	-6.266410	-2.088803
O	7.512698	-5.018322	-0.840715
O	3.335926	-3.336892	-3.336892
O	5.017617	-5.018322	-3.336892
O	5.424312	-2.929519	-1.248088
O	9.194389	-3.336892	-0.840715
O	5.424312	-1.248088	-2.929519
O	7.106003	-1.248088	-1.248088
O	7.106003	-2.929519	-2.929519
Si	3.132579	-5.222009	-3.133205
Si	7.309350	-3.133205	-1.044402
Si	9.397736	-5.222009	-1.044402
Si	5.220965	-3.133205	-3.133205
Ir	8.353543	0.000000	0.000000
Ir	10.441929	-2.088803	-2.088803
O	11.689470	-0.840715	-0.840715
O	7.512698	0.840715	-3.336892
O	9.194389	-0.840715	-3.336892
O	9.601084	1.248088	-1.248088
O	13.371161	0.840715	-0.840715
O	9.601084	2.929519	-2.929519
O	11.282775	2.929519	-1.248088
O	11.282775	1.248088	-2.929519
Si	7.309350	-1.044402	-3.133205
Si	11.486122	1.044402	-1.044402
Si	13.574508	-1.044402	-1.044402
Si	9.397736	1.044402	-3.133205
Ir	0.000000	-4.177607	-4.177607
Ir	2.088386	-6.266410	-6.266410
O	3.335926	-5.018322	-5.018322
O	-0.840845	-3.336892	-7.514498
O	0.840845	-5.018322	-7.514498
O	1.247540	-2.929519	-5.425695
O	5.017617	-3.336892	-5.018322
O	1.247540	-1.248088	-7.107126
O	2.929231	-1.248088	-5.425695
O	2.929231	-2.929519	-7.107126
Si	-1.044193	-5.222009	-7.310812
Si	3.132579	-3.133205	-5.222009
Si	5.220965	-5.222009	-5.222009
Si	1.044193	-3.133205	-7.310812
Ir	4.176772	0.000000	-4.177607
Ir	6.265158	-2.088803	-6.266410
O	7.512698	-0.840715	-5.018322
O	3.335926	0.840715	-7.514498
O	5.017617	-0.840715	-7.514498
O	5.424312	1.248088	-5.425695
O	9.194389	0.840715	-5.018322
O	5.424312	2.929519	-7.107126
O	7.106003	2.929519	-5.425695
O	7.106003	1.248088	-7.107126
Si	3.132579	-1.044402	-7.310812
Si	7.309350	1.044402	-5.222009
Si	9.397736	-1.044402	-5.222009
Si	5.220965	1.044402	-7.310812
