40

Ni	1.869037	1.869037	1.869037
O	0.000000	1.869037	1.869037
O	1.869037	0.000000	1.869037
O	1.869037	1.869037	0.000000
Os	0.000000	0.000000	0.000000
Ni	1.869037	1.869037	5.607112
O	0.000000	1.869037	5.607112
O	1.869037	0.000000	5.607112
O	1.869037	1.869037	3.738075
Os	0.000000	0.000000	3.738075
Ni	1.869037	5.607112	1.869037
O	0.000000	5.607112	1.869037
O	1.869037	3.738075	1.869037
O	1.869037	5.607112	0.000000
Os	0.000000	3.738075	0.000000
Ni	1.869037	5.607112	5.607112
O	0.000000	5.607112	5.607112
O	1.869037	3.738075	5.607112
O	1.869037	5.607112	3.738075
Os	0.000000	3.738075	3.738075
Ni	5.607112	1.869037	1.869037
O	3.738075	1.869037	1.869037
O	5.607112	0.000000	1.869037
O	5.607112	1.869037	0.000000
Os	3.738075	0.000000	0.000000
Ni	5.607112	1.869037	5.607112
O	3.738075	1.869037	5.607112
O	5.607112	0.000000	5.607112
O	5.607112	1.869037	3.738075
Os	3.738075	0.000000	3.738075
Ni	5.607112	5.607112	1.869037
O	3.738075	5.607112	1.869037
O	5.607112	3.738075	1.869037
O	5.607112	5.607112	0.000000
Os	3.738075	3.738075	0.000000
Ni	5.607112	5.607112	5.607112
O	3.738075	5.607112	5.607112
O	5.607112	3.738075	5.607112
O	5.607112	5.607112	3.738075
Os	3.738075	3.738075	3.738075
