40

Mg	0.000000	0.000000	0.000000
Mn	1.851840	1.851840	1.851840
O	1.851840	1.851840	0.000000
O	0.000000	1.851840	1.851840
O	1.851840	0.000000	1.851840
Mg	0.000000	0.000000	3.703672
Mn	1.851840	1.851840	5.555512
O	1.851840	1.851840	3.703672
O	0.000000	1.851840	5.555512
O	1.851840	0.000000	5.555512
Mg	0.000000	3.703672	0.000000
Mn	1.851840	5.555512	1.851840
O	1.851840	5.555512	0.000000
O	0.000000	5.555512	1.851840
O	1.851840	3.703672	1.851840
Mg	0.000000	3.703672	3.703672
Mn	1.851840	5.555512	5.555512
O	1.851840	5.555512	3.703672
O	0.000000	5.555512	5.555512
O	1.851840	3.703672	5.555512
Mg	3.703672	0.000000	0.000000
Mn	5.555512	1.851840	1.851840
O	5.555512	1.851840	0.000000
O	3.703672	1.851840	1.851840
O	5.555512	0.000000	1.851840
Mg	3.703672	0.000000	3.703672
Mn	5.555512	1.851840	5.555512
O	5.555512	1.851840	3.703672
O	3.703672	1.851840	5.555512
O	5.555512	0.000000	5.555512
Mg	3.703672	3.703672	0.000000
Mn	5.555512	5.555512	1.851840
O	5.555512	5.555512	0.000000
O	3.703672	5.555512	1.851840
O	5.555512	3.703672	1.851840
Mg	3.703672	3.703672	3.703672
Mn	5.555512	5.555512	5.555512
O	5.555512	5.555512	3.703672
O	3.703672	5.555512	5.555512
O	5.555512	3.703672	5.555512
