40

Cd	0.000000	0.000000	0.000000
Np	2.157834	2.157834	2.157834
O	2.157834	2.157834	0.000000
O	2.157834	0.000000	2.157834
O	0.000000	2.157834	2.157834
Cd	0.000000	0.000000	4.315677
Np	2.157834	2.157834	6.473511
O	2.157834	2.157834	4.315677
O	2.157834	0.000000	6.473511
O	0.000000	2.157834	6.473511
Cd	0.000000	4.315677	0.000000
Np	2.157834	6.473511	2.157834
O	2.157834	6.473511	0.000000
O	2.157834	4.315677	2.157834
O	0.000000	6.473511	2.157834
Cd	0.000000	4.315677	4.315677
Np	2.157834	6.473511	6.473511
O	2.157834	6.473511	4.315677
O	2.157834	4.315677	6.473511
O	0.000000	6.473511	6.473511
Cd	4.315677	0.000000	0.000000
Np	6.473511	2.157834	2.157834
O	6.473511	2.157834	0.000000
O	6.473511	0.000000	2.157834
O	4.315677	2.157834	2.157834
Cd	4.315677	0.000000	4.315677
Np	6.473511	2.157834	6.473511
O	6.473511	2.157834	4.315677
O	6.473511	0.000000	6.473511
O	4.315677	2.157834	6.473511
Cd	4.315677	4.315677	0.000000
Np	6.473511	6.473511	2.157834
O	6.473511	6.473511	0.000000
O	6.473511	4.315677	2.157834
O	4.315677	6.473511	2.157834
Cd	4.315677	4.315677	4.315677
Np	6.473511	6.473511	6.473511
O	6.473511	6.473511	4.315677
O	6.473511	4.315677	6.473511
O	4.315677	6.473511	6.473511
