40

Be	1.752866	1.752866	1.752866
O	1.752866	1.752866	0.000000
O	0.000000	1.752866	1.752866
O	1.752866	0.000000	1.752866
Tm	0.000000	0.000000	0.000000
Be	1.752866	1.752866	5.258591
O	1.752866	1.752866	3.505725
O	0.000000	1.752866	5.258591
O	1.752866	0.000000	5.258591
Tm	0.000000	0.000000	3.505725
Be	1.752866	5.258591	1.752866
O	1.752866	5.258591	0.000000
O	0.000000	5.258591	1.752866
O	1.752866	3.505725	1.752866
Tm	0.000000	3.505725	0.000000
Be	1.752866	5.258591	5.258591
O	1.752866	5.258591	3.505725
O	0.000000	5.258591	5.258591
O	1.752866	3.505725	5.258591
Tm	0.000000	3.505725	3.505725
Be	5.258591	1.752866	1.752866
O	5.258591	1.752866	0.000000
O	3.505725	1.752866	1.752866
O	5.258591	0.000000	1.752866
Tm	3.505725	0.000000	0.000000
Be	5.258591	1.752866	5.258591
O	5.258591	1.752866	3.505725
O	3.505725	1.752866	5.258591
O	5.258591	0.000000	5.258591
Tm	3.505725	0.000000	3.505725
Be	5.258591	5.258591	1.752866
O	5.258591	5.258591	0.000000
O	3.505725	5.258591	1.752866
O	5.258591	3.505725	1.752866
Tm	3.505725	3.505725	0.000000
Be	5.258591	5.258591	5.258591
O	5.258591	5.258591	3.505725
O	3.505725	5.258591	5.258591
O	5.258591	3.505725	5.258591
Tm	3.505725	3.505725	3.505725
