40

Ba	0.000000	0.000000	0.000000
In	2.136420	2.136420	2.136420
O	0.000000	2.136420	2.136420
O	2.136420	0.000000	2.136420
O	2.136420	2.136420	0.000000
Ba	0.000000	0.000000	4.272841
In	2.136420	2.136420	6.409261
O	0.000000	2.136420	6.409261
O	2.136420	0.000000	6.409261
O	2.136420	2.136420	4.272841
Ba	0.000000	4.272841	0.000000
In	2.136420	6.409261	2.136420
O	0.000000	6.409261	2.136420
O	2.136420	4.272841	2.136420
O	2.136420	6.409261	0.000000
Ba	0.000000	4.272841	4.272841
In	2.136420	6.409261	6.409261
O	0.000000	6.409261	6.409261
O	2.136420	4.272841	6.409261
O	2.136420	6.409261	4.272841
Ba	4.272841	0.000000	0.000000
In	6.409261	2.136420	2.136420
O	4.272841	2.136420	2.136420
O	6.409261	0.000000	2.136420
O	6.409261	2.136420	0.000000
Ba	4.272841	0.000000	4.272841
In	6.409261	2.136420	6.409261
O	4.272841	2.136420	6.409261
O	6.409261	0.000000	6.409261
O	6.409261	2.136420	4.272841
Ba	4.272841	4.272841	0.000000
In	6.409261	6.409261	2.136420
O	4.272841	6.409261	2.136420
O	6.409261	4.272841	2.136420
O	6.409261	6.409261	0.000000
Ba	4.272841	4.272841	4.272841
In	6.409261	6.409261	6.409261
O	4.272841	6.409261	6.409261
O	6.409261	4.272841	6.409261
O	6.409261	6.409261	4.272841
