40

Be	0.000000	0.000000	0.000000
O	0.000000	1.933548	1.933548
O	1.933548	0.000000	1.933548
O	1.933548	1.933548	0.000000
Tc	1.933548	1.933548	1.933548
Be	0.000000	0.000000	3.867096
O	0.000000	1.933548	5.800644
O	1.933548	0.000000	5.800644
O	1.933548	1.933548	3.867096
Tc	1.933548	1.933548	5.800644
Be	0.000000	3.867096	0.000000
O	0.000000	5.800644	1.933548
O	1.933548	3.867096	1.933548
O	1.933548	5.800644	0.000000
Tc	1.933548	5.800644	1.933548
Be	0.000000	3.867096	3.867096
O	0.000000	5.800644	5.800644
O	1.933548	3.867096	5.800644
O	1.933548	5.800644	3.867096
Tc	1.933548	5.800644	5.800644
Be	3.867096	0.000000	0.000000
O	3.867096	1.933548	1.933548
O	5.800644	0.000000	1.933548
O	5.800644	1.933548	0.000000
Tc	5.800644	1.933548	1.933548
Be	3.867096	0.000000	3.867096
O	3.867096	1.933548	5.800644
O	5.800644	0.000000	5.800644
O	5.800644	1.933548	3.867096
Tc	5.800644	1.933548	5.800644
Be	3.867096	3.867096	0.000000
O	3.867096	5.800644	1.933548
O	5.800644	3.867096	1.933548
O	5.800644	5.800644	0.000000
Tc	5.800644	5.800644	1.933548
Be	3.867096	3.867096	3.867096
O	3.867096	5.800644	5.800644
O	5.800644	3.867096	5.800644
O	5.800644	5.800644	3.867096
Tc	5.800644	5.800644	5.800644
