40

Hg	2.104528	2.104528	2.104528
O	2.104528	2.104528	0.000000
O	2.104528	0.000000	2.104528
O	0.000000	2.104528	2.104528
Tm	0.000000	0.000000	0.000000
Hg	2.104528	2.104528	6.313584
O	2.104528	2.104528	4.209056
O	2.104528	0.000000	6.313584
O	0.000000	2.104528	6.313584
Tm	0.000000	0.000000	4.209056
Hg	2.104528	6.313584	2.104528
O	2.104528	6.313584	0.000000
O	2.104528	4.209056	2.104528
O	0.000000	6.313584	2.104528
Tm	0.000000	4.209056	0.000000
Hg	2.104528	6.313584	6.313584
O	2.104528	6.313584	4.209056
O	2.104528	4.209056	6.313584
O	0.000000	6.313584	6.313584
Tm	0.000000	4.209056	4.209056
Hg	6.313584	2.104528	2.104528
O	6.313584	2.104528	0.000000
O	6.313584	0.000000	2.104528
O	4.209056	2.104528	2.104528
Tm	4.209056	0.000000	0.000000
Hg	6.313584	2.104528	6.313584
O	6.313584	2.104528	4.209056
O	6.313584	0.000000	6.313584
O	4.209056	2.104528	6.313584
Tm	4.209056	0.000000	4.209056
Hg	6.313584	6.313584	2.104528
O	6.313584	6.313584	0.000000
O	6.313584	4.209056	2.104528
O	4.209056	6.313584	2.104528
Tm	4.209056	4.209056	0.000000
Hg	6.313584	6.313584	6.313584
O	6.313584	6.313584	4.209056
O	6.313584	4.209056	6.313584
O	4.209056	6.313584	6.313584
Tm	4.209056	4.209056	4.209056
