112

Ce	0.000000	0.000000	0.000000
Ce	2.659501	-2.655443	-2.655443
K	-1.329755	-1.327726	-3.983169
K	6.648757	-1.327726	-1.327726
K	3.989256	1.327726	-1.327726
K	1.329755	1.327726	-3.983169
O	1.297458	1.295331	-1.295331
O	-1.362053	1.360111	-3.950774
O	3.956959	-1.360111	-1.360111
O	1.362053	-1.360111	-3.950774
O	1.297458	4.015554	-4.015554
O	4.021554	4.015554	-1.295331
O	4.021554	1.295331	-4.015554
O	6.681054	1.360112	-1.360111
Ce	5.319009	5.310888	0.000000
Ce	7.978510	2.655446	-2.655443
K	3.989254	3.983162	-3.983169
K	11.967766	3.983162	-1.327726
K	9.308266	6.638615	-1.327726
K	6.648765	6.638615	-3.983169
O	6.616467	6.606219	-1.295331
O	3.956957	6.671000	-3.950774
O	9.275968	3.950777	-1.360111
O	6.681062	3.950777	-3.950774
O	6.616467	9.326442	-4.015554
O	9.340563	9.326442	-1.295331
O	9.340563	6.606219	-4.015554
O	12.000064	6.671000	-1.360111
Ce	-5.319009	0.000000	-5.310888
Ce	-2.659509	-2.655443	-7.966331
K	-6.648765	-1.327726	-9.294057
K	1.329747	-1.327726	-6.638615
K	-1.329753	1.327726	-6.638615
K	-3.989254	1.327726	-9.294057
O	-4.021552	1.295331	-6.606219
O	-6.681062	1.360111	-9.261662
O	-1.362051	-1.360111	-6.671000
O	-3.956957	-1.360111	-9.261662
O	-4.021552	4.015554	-9.326442
O	-1.297456	4.015554	-6.606219
O	-1.297456	1.295331	-9.326442
O	1.362045	1.360112	-6.671000
Ce	0.000000	5.310888	-5.310888
Ce	2.659501	2.655446	-7.966331
K	-1.329755	3.983162	-9.294057
K	6.648757	3.983162	-6.638615
K	3.989256	6.638615	-6.638615
K	1.329755	6.638615	-9.294057
O	1.297458	6.606219	-6.606219
O	-1.362053	6.671000	-9.261662
O	3.956959	3.950777	-6.671000
O	1.362053	3.950777	-9.261662
O	1.297458	9.326442	-9.326442
O	4.021554	9.326442	-6.606219
O	4.021554	6.606219	-9.326442
O	6.681054	6.671000	-6.671000
Ce	5.319009	-5.310888	0.000000
Ce	7.978510	-7.966331	-2.655443
K	3.989254	-6.638615	-3.983169
K	11.967766	-6.638615	-1.327726
K	9.308266	-3.983162	-1.327726
K	6.648765	-3.983162	-3.983169
O	6.616467	-4.015557	-1.295331
O	3.956957	-3.950777	-3.950774
O	9.275968	-6.671000	-1.360111
O	6.681062	-6.671000	-3.950774
O	6.616467	-1.295334	-4.015554
O	9.340563	-1.295334	-1.295331
O	9.340563	-4.015557	-4.015554
O	12.000064	-3.950777	-1.360111
Ce	10.638019	0.000000	0.000000
Ce	13.297520	-2.655443	-2.655443
K	9.308264	-1.327726	-3.983169
K	17.286776	-1.327726	-1.327726
K	14.627275	1.327726	-1.327726
K	11.967774	1.327726	-3.983169
O	11.935477	1.295331	-1.295331
O	9.275966	1.360111	-3.950774
O	14.594977	-1.360111	-1.360111
O	12.000072	-1.360111	-3.950774
O	11.935477	4.015554	-4.015554
O	14.659572	4.015554	-1.295331
O	14.659572	1.295331	-4.015554
O	17.319073	1.360112	-1.360111
Ce	0.000000	-5.310888	-5.310888
Ce	2.659501	-7.966331	-7.966331
K	-1.329755	-6.638615	-9.294057
K	6.648757	-6.638615	-6.638615
K	3.989256	-3.983162	-6.638615
K	1.329755	-3.983162	-9.294057
O	1.297458	-4.015557	-6.606219
O	-1.362053	-3.950777	-9.261662
O	3.956959	-6.671000	-6.671000
O	1.362053	-6.671000	-9.261662
O	1.297458	-1.295334	-9.326442
O	4.021554	-1.295334	-6.606219
O	4.021554	-4.015557	-9.326442
O	6.681054	-3.950777	-6.671000
Ce	5.319009	0.000000	-5.310888
Ce	7.978510	-2.655443	-7.966331
K	3.989254	-1.327726	-9.294057
K	11.967766	-1.327726	-6.638615
K	9.308266	1.327726	-6.638615
K	6.648765	1.327726	-9.294057
O	6.616467	1.295331	-6.606219
O	3.956957	1.360111	-9.261662
O	9.275968	-1.360111	-6.671000
O	6.681062	-1.360111	-9.261662
O	6.616467	4.015554	-9.326442
O	9.340563	4.015554	-6.606219
O	9.340563	1.295331	-9.326442
O	12.000064	1.360112	-6.671000
