112

Ce	0.000000	0.000000	0.000000
Ce	2.639682	-2.640380	-2.640380
K	-1.319851	-1.320200	-3.960580
K	6.599215	-1.320200	-1.320200
K	3.959533	1.320200	-1.320200
K	1.319851	1.320200	-3.960580
O	1.290513	1.290325	-1.290325
O	1.349179	-1.350055	-3.930705
O	-1.349179	1.350055	-3.930705
O	3.930195	-1.350055	-1.350055
O	3.988862	1.290325	-3.990434
O	3.988862	3.990434	-1.290325
O	1.290513	3.990434	-3.990434
O	6.628544	1.350055	-1.350055
Ce	5.279374	5.280768	0.000000
Ce	7.919056	2.640388	-2.640380
K	3.959523	3.960568	-3.960580
K	11.878589	3.960568	-1.320200
K	9.238907	6.600968	-1.320200
K	6.599225	6.600968	-3.960580
O	6.569886	6.571093	-1.290325
O	6.628553	3.930713	-3.930705
O	3.930194	6.630822	-3.930705
O	9.209568	3.930713	-1.350055
O	9.268235	6.571093	-3.990434
O	9.268235	9.271202	-1.290325
O	6.569886	9.271202	-3.990434
O	11.907917	6.630822	-1.350055
Ce	-5.279374	0.000000	-5.280768
Ce	-2.639691	-2.640380	-7.921148
K	-6.599225	-1.320200	-9.241348
K	1.319842	-1.320200	-6.600968
K	-1.319841	1.320200	-6.600968
K	-3.959523	1.320200	-9.241348
O	-3.988861	1.290325	-6.571093
O	-3.930194	-1.350055	-9.211473
O	-6.628553	1.350055	-9.211473
O	-1.349179	-1.350055	-6.630822
O	-1.290512	1.290325	-9.271202
O	-1.290512	3.990434	-6.571093
O	-3.988861	3.990434	-9.271202
O	1.349170	1.350055	-6.630822
Ce	0.000000	5.280768	-5.280768
Ce	2.639682	2.640388	-7.921148
K	-1.319851	3.960568	-9.241348
K	6.599215	3.960568	-6.600968
K	3.959533	6.600968	-6.600968
K	1.319851	6.600968	-9.241348
O	1.290513	6.571093	-6.571093
O	1.349179	3.930713	-9.211473
O	-1.349179	6.630822	-9.211473
O	3.930195	3.930713	-6.630822
O	3.988862	6.571093	-9.271202
O	3.988862	9.271202	-6.571093
O	1.290513	9.271202	-9.271202
O	6.628544	6.630822	-6.630822
Ce	5.279374	-5.280768	0.000000
Ce	7.919056	-7.921148	-2.640380
K	3.959523	-6.600968	-3.960580
K	11.878589	-6.600968	-1.320200
K	9.238907	-3.960568	-1.320200
K	6.599225	-3.960568	-3.960580
O	6.569886	-3.990443	-1.290325
O	6.628553	-6.630822	-3.930705
O	3.930194	-3.930713	-3.930705
O	9.209568	-6.630822	-1.350055
O	9.268235	-3.990443	-3.990434
O	9.268235	-1.290334	-1.290325
O	6.569886	-1.290334	-3.990434
O	11.907917	-3.930713	-1.350055
Ce	10.558747	0.000000	0.000000
Ce	13.198429	-2.640380	-2.640380
K	9.238896	-1.320200	-3.960580
K	17.157963	-1.320200	-1.320200
K	14.518280	1.320200	-1.320200
K	11.878598	1.320200	-3.960580
O	11.849260	1.290325	-1.290325
O	11.907927	-1.350055	-3.930705
O	9.209568	1.350055	-3.930705
O	14.488942	-1.350055	-1.350055
O	14.547609	1.290325	-3.990434
O	14.547609	3.990434	-1.290325
O	11.849260	3.990434	-3.990434
O	17.187291	1.350055	-1.350055
Ce	0.000000	-5.280768	-5.280768
Ce	2.639682	-7.921148	-7.921148
K	-1.319851	-6.600968	-9.241348
K	6.599215	-6.600968	-6.600968
K	3.959533	-3.960568	-6.600968
K	1.319851	-3.960568	-9.241348
O	1.290513	-3.990443	-6.571093
O	1.349179	-6.630822	-9.211473
O	-1.349179	-3.930713	-9.211473
O	3.930195	-6.630822	-6.630822
O	3.988862	-3.990443	-9.271202
O	3.988862	-1.290334	-6.571093
O	1.290513	-1.290334	-9.271202
O	6.628544	-3.930713	-6.630822
Ce	5.279374	0.000000	-5.280768
Ce	7.919056	-2.640380	-7.921148
K	3.959523	-1.320200	-9.241348
K	11.878589	-1.320200	-6.600968
K	9.238907	1.320200	-6.600968
K	6.599225	1.320200	-9.241348
O	6.569886	1.290325	-6.571093
O	6.628553	-1.350055	-9.211473
O	3.930194	1.350055	-9.211473
O	9.209568	-1.350055	-6.630822
O	9.268235	1.290325	-9.271202
O	9.268235	3.990434	-6.571093
O	6.569886	3.990434	-9.271202
O	11.907917	1.350055	-6.630822
