40

C	0.000000	0.000000	0.000000
F	1.851286	1.851286	1.851286
O	0.000000	1.851286	1.851286
O	1.851286	0.000000	1.851286
O	1.851286	1.851286	0.000000
C	0.000000	0.000000	3.702571
F	1.851286	1.851286	5.553857
O	0.000000	1.851286	5.553857
O	1.851286	0.000000	5.553857
O	1.851286	1.851286	3.702571
C	0.000000	3.702571	0.000000
F	1.851286	5.553857	1.851286
O	0.000000	5.553857	1.851286
O	1.851286	3.702571	1.851286
O	1.851286	5.553857	0.000000
C	0.000000	3.702571	3.702571
F	1.851286	5.553857	5.553857
O	0.000000	5.553857	5.553857
O	1.851286	3.702571	5.553857
O	1.851286	5.553857	3.702571
C	3.702571	0.000000	0.000000
F	5.553857	1.851286	1.851286
O	3.702571	1.851286	1.851286
O	5.553857	0.000000	1.851286
O	5.553857	1.851286	0.000000
C	3.702571	0.000000	3.702571
F	5.553857	1.851286	5.553857
O	3.702571	1.851286	5.553857
O	5.553857	0.000000	5.553857
O	5.553857	1.851286	3.702571
C	3.702571	3.702571	0.000000
F	5.553857	5.553857	1.851286
O	3.702571	5.553857	1.851286
O	5.553857	3.702571	1.851286
O	5.553857	5.553857	0.000000
C	3.702571	3.702571	3.702571
F	5.553857	5.553857	5.553857
O	3.702571	5.553857	5.553857
O	5.553857	3.702571	5.553857
O	5.553857	5.553857	3.702571
