40

As	0.000000	0.000000	0.000000
Ho_3	2.123260	2.123260	2.123260
O	2.123260	0.000000	2.123260
O	0.000000	2.123260	2.123260
O	2.123260	2.123260	0.000000
As	0.000000	0.000000	4.246523
Ho_3	2.123260	2.123260	6.369783
O	2.123260	0.000000	6.369783
O	0.000000	2.123260	6.369783
O	2.123260	2.123260	4.246523
As	0.000000	4.246523	0.000000
Ho_3	2.123260	6.369783	2.123260
O	2.123260	4.246523	2.123260
O	0.000000	6.369783	2.123260
O	2.123260	6.369783	0.000000
As	0.000000	4.246523	4.246523
Ho_3	2.123260	6.369783	6.369783
O	2.123260	4.246523	6.369783
O	0.000000	6.369783	6.369783
O	2.123260	6.369783	4.246523
As	4.246523	0.000000	0.000000
Ho_3	6.369783	2.123260	2.123260
O	6.369783	0.000000	2.123260
O	4.246523	2.123260	2.123260
O	6.369783	2.123260	0.000000
As	4.246523	0.000000	4.246523
Ho_3	6.369783	2.123260	6.369783
O	6.369783	0.000000	6.369783
O	4.246523	2.123260	6.369783
O	6.369783	2.123260	4.246523
As	4.246523	4.246523	0.000000
Ho_3	6.369783	6.369783	2.123260
O	6.369783	4.246523	2.123260
O	4.246523	6.369783	2.123260
O	6.369783	6.369783	0.000000
As	4.246523	4.246523	4.246523
Ho_3	6.369783	6.369783	6.369783
O	6.369783	4.246523	6.369783
O	4.246523	6.369783	6.369783
O	6.369783	6.369783	4.246523
