112

O	1.204082	1.204217	-1.204217
O	-1.465965	1.465883	-3.874327
O	3.874130	-1.465883	-1.465883
O	1.465965	-1.465883	-3.874327
O	1.204082	4.135993	-4.135993
O	4.136023	4.135993	-1.204217
O	4.136023	1.204217	-4.135993
O	6.806070	1.465883	-1.465883
Pb	0.000000	0.000000	0.000000
Pb	2.670048	-2.670110	-2.670110
Rb	-1.335029	-1.335055	-4.005165
Rb	6.675124	-1.335055	-1.335055
Rb	4.005076	1.335055	-1.335055
Rb	1.335029	1.335055	-4.005165
O	6.544182	6.544434	-1.204217
O	3.874135	6.806099	-3.874327
O	9.214230	3.874333	-1.465883
O	6.806065	3.874333	-3.874327
O	6.544182	9.476210	-4.135993
O	9.476123	9.476210	-1.204217
O	9.476123	6.544434	-4.135993
O	12.146170	6.806099	-1.465883
Pb	5.340100	5.340216	0.000000
Pb	8.010147	2.670106	-2.670110
Rb	4.005071	4.005161	-4.005165
Rb	12.015224	4.005161	-1.335055
Rb	9.345176	6.675271	-1.335055
Rb	6.675129	6.675271	-4.005165
O	-4.136017	1.204217	-6.544434
O	-6.806065	1.465883	-9.214544
O	-1.465970	-1.465883	-6.806099
O	-3.874134	-1.465883	-9.214544
O	-4.136017	4.135993	-9.476210
O	-1.204077	4.135993	-6.544434
O	-1.204077	1.204217	-9.476210
O	1.465971	1.465883	-6.806099
Pb	-5.340100	0.000000	-5.340216
Pb	-2.670052	-2.670110	-8.010327
Rb	-6.675129	-1.335055	-9.345382
Rb	1.335024	-1.335055	-6.675271
Rb	-1.335023	1.335055	-6.675271
Rb	-4.005071	1.335055	-9.345382
O	1.204082	6.544434	-6.544434
O	-1.465965	6.806099	-9.214544
O	3.874130	3.874333	-6.806099
O	1.465965	3.874333	-9.214544
O	1.204082	9.476210	-9.476210
O	4.136023	9.476210	-6.544434
O	4.136023	6.544434	-9.476210
O	6.806070	6.806099	-6.806099
Pb	0.000000	5.340216	-5.340216
Pb	2.670048	2.670106	-8.010327
Rb	-1.335029	4.005161	-9.345382
Rb	6.675124	4.005161	-6.675271
Rb	4.005076	6.675271	-6.675271
Rb	1.335029	6.675271	-9.345382
O	6.544182	-4.135999	-1.204217
O	3.874135	-3.874333	-3.874327
O	9.214230	-6.806099	-1.465883
O	6.806065	-6.806099	-3.874327
O	6.544182	-1.204223	-4.135993
O	9.476123	-1.204223	-1.204217
O	9.476123	-4.135999	-4.135993
O	12.146170	-3.874333	-1.465883
Pb	5.340100	-5.340216	0.000000
Pb	8.010147	-8.010327	-2.670110
Rb	4.005071	-6.675272	-4.005165
Rb	12.015224	-6.675271	-1.335055
Rb	9.345176	-4.005161	-1.335055
Rb	6.675129	-4.005161	-4.005165
O	11.884282	1.204217	-1.204217
O	9.214234	1.465883	-3.874327
O	14.554330	-1.465883	-1.465883
O	12.146165	-1.465883	-3.874327
O	11.884282	4.135993	-4.135993
O	14.816222	4.135993	-1.204217
O	14.816222	1.204217	-4.135993
O	17.486270	1.465883	-1.465883
Pb	10.680200	0.000000	0.000000
Pb	13.350247	-2.670110	-2.670110
Rb	9.345171	-1.335055	-4.005165
Rb	17.355324	-1.335055	-1.335055
Rb	14.685276	1.335055	-1.335055
Rb	12.015228	1.335055	-4.005165
O	1.204082	-4.135999	-6.544434
O	-1.465965	-3.874333	-9.214544
O	3.874130	-6.806099	-6.806099
O	1.465965	-6.806099	-9.214544
O	1.204082	-1.204223	-9.476210
O	4.136023	-1.204223	-6.544434
O	4.136023	-4.135999	-9.476210
O	6.806070	-3.874333	-6.806099
Pb	0.000000	-5.340216	-5.340216
Pb	2.670048	-8.010327	-8.010327
Rb	-1.335029	-6.675272	-9.345382
Rb	6.675124	-6.675271	-6.675271
Rb	4.005076	-4.005161	-6.675271
Rb	1.335029	-4.005161	-9.345382
O	6.544182	1.204217	-6.544434
O	3.874135	1.465883	-9.214544
O	9.214230	-1.465883	-6.806099
O	6.806065	-1.465883	-9.214544
O	6.544182	4.135993	-9.476210
O	9.476123	4.135993	-6.544434
O	9.476123	1.204217	-9.476210
O	12.146170	1.465883	-6.806099
Pb	5.340100	0.000000	-5.340216
Pb	8.010147	-2.670110	-8.010327
Rb	4.005071	-1.335055	-9.345382
Rb	12.015224	-1.335055	-6.675271
Rb	9.345176	1.335055	-6.675271
Rb	6.675129	1.335055	-9.345382
