440

Mg	2.329817	2.374576	2.374576
Mg	4.704393	0.000000	4.704393
Mg	2.329817	7.034210	7.034210
Mg	4.704393	4.704393	0.000000
Mg	7.078970	2.374576	7.034210
Mg	0.000000	0.000000	0.000000
Mg	7.078970	7.034210	2.374576
Y	1.191845	8.252913	3.512548
Y	3.531465	1.172929	8.235858
Y	3.548519	3.512548	5.896238
Y	1.191845	1.155874	5.896238
Y	1.191845	3.512548	8.252913
Y	3.548519	5.896238	3.512548
Y	3.531465	8.235858	1.172929
Y	1.191845	5.896238	1.155874
Y	5.877322	8.235858	8.235858
Y	8.216942	1.155874	3.512548
Y	8.216942	3.512548	1.155874
Y	5.877322	1.172929	1.172929
Y	5.860267	3.512548	3.512548
Y	8.216942	5.896238	8.252913
Y	8.216942	8.252913	5.896238
Y	5.860267	5.896238	5.896238
O	3.587444	1.116950	1.116950
O	5.841138	3.588851	5.819935
O	5.821343	1.116950	8.291837
O	3.567649	3.588851	3.588851
O	3.501886	1.202507	5.944124
O	1.239731	8.206279	1.202507
O	1.239731	1.202507	8.206279
O	3.501886	8.206279	3.464662
O	3.567649	5.819935	5.819935
O	5.821343	8.291837	1.116950
O	5.841138	5.819935	3.588851
O	3.587444	8.291837	8.291837
O	3.501886	5.944124	1.202507
O	1.424297	3.280096	6.128691
O	1.424297	6.128691	3.280096
O	3.501886	3.464662	8.206279
O	8.293245	1.136745	5.819935
O	1.115542	3.588851	1.136745
O	1.115542	1.136745	3.588851
O	8.293245	3.588851	8.272042
O	8.169055	1.202507	1.202507
O	5.906901	8.206279	5.944124
O	5.906901	1.202507	3.464662
O	8.169055	8.206279	8.206279
O	8.293245	5.819935	1.136745
O	1.115542	8.272042	5.819935
O	1.115542	5.819935	8.272042
O	8.293245	8.272042	3.588851
O	7.984489	6.128691	6.128691
O	5.906901	3.464662	1.202507
O	5.906901	5.944124	8.206279
O	7.984489	3.280096	3.280096
Mg	2.329817	2.374576	11.783363
Mg	4.704393	0.000000	14.113180
Mg	2.329817	7.034210	16.442997
Mg	4.704393	4.704393	9.408787
Mg	7.078970	2.374576	16.442997
Mg	0.000000	0.000000	9.408787
Mg	7.078970	7.034210	11.783363
Y	1.191845	8.252913	12.921335
Y	3.531465	1.172929	17.644645
Y	3.548519	3.512548	15.305025
Y	1.191845	1.155874	15.305025
Y	1.191845	3.512548	17.661699
Y	3.548519	5.896238	12.921335
Y	3.531465	8.235858	10.581715
Y	1.191845	5.896238	10.564660
Y	5.877322	8.235858	17.644645
Y	8.216942	1.155874	12.921335
Y	8.216942	3.512548	10.564660
Y	5.877322	1.172929	10.581715
Y	5.860267	3.512548	12.921335
Y	8.216942	5.896238	17.661699
Y	8.216942	8.252913	15.305025
Y	5.860267	5.896238	15.305025
O	3.587444	1.116950	10.525736
O	5.841138	3.588851	15.228722
O	5.821343	1.116950	17.700623
O	3.567649	3.588851	12.997638
O	3.501886	1.202507	15.352911
O	1.239731	8.206279	10.611294
O	1.239731	1.202507	17.615066
O	3.501886	8.206279	12.873449
O	3.567649	5.819935	15.228722
O	5.821343	8.291837	10.525736
O	5.841138	5.819935	12.997638
O	3.587444	8.291837	17.700623
O	3.501886	5.944124	10.611294
O	1.424297	3.280096	15.537477
O	1.424297	6.128691	12.688883
O	3.501886	3.464662	17.615066
O	8.293245	1.136745	15.228722
O	1.115542	3.588851	10.545531
O	1.115542	1.136745	12.997638
O	8.293245	3.588851	17.680829
O	8.169055	1.202507	10.611294
O	5.906901	8.206279	15.352911
O	5.906901	1.202507	12.873449
O	8.169055	8.206279	17.615066
O	8.293245	5.819935	10.545531
O	1.115542	8.272042	15.228722
O	1.115542	5.819935	17.680829
O	8.293245	8.272042	12.997638
O	7.984489	6.128691	15.537477
O	5.906901	3.464662	10.611294
O	5.906901	5.944124	17.615066
O	7.984489	3.280096	12.688883
Mg	2.329817	11.783363	2.374576
Mg	4.704393	9.408787	4.704393
Mg	2.329817	16.442997	7.034210
Mg	4.704393	14.113180	0.000000
Mg	7.078970	11.783363	7.034210
Mg	0.000000	9.408787	0.000000
Mg	7.078970	16.442997	2.374576
Y	1.191845	17.661699	3.512548
Y	3.531465	10.581715	8.235858
Y	3.548519	12.921335	5.896238
Y	1.191845	10.564660	5.896238
Y	1.191845	12.921335	8.252913
Y	3.548519	15.305025	3.512548
Y	3.531465	17.644645	1.172929
Y	1.191845	15.305025	1.155874
Y	5.877322	17.644645	8.235858
Y	8.216942	10.564660	3.512548
Y	8.216942	12.921335	1.155874
Y	5.877322	10.581715	1.172929
Y	5.860267	12.921335	3.512548
Y	8.216942	15.305025	8.252913
Y	8.216942	17.661699	5.896238
Y	5.860267	15.305025	5.896238
O	3.587444	10.525736	1.116950
O	5.841138	12.997638	5.819935
O	5.821343	10.525736	8.291837
O	3.567649	12.997638	3.588851
O	3.501886	10.611294	5.944124
O	1.239731	17.615066	1.202507
O	1.239731	10.611294	8.206279
O	3.501886	17.615066	3.464662
O	3.567649	15.228722	5.819935
O	5.821343	17.700623	1.116950
O	5.841138	15.228722	3.588851
O	3.587444	17.700623	8.291837
O	3.501886	15.352911	1.202507
O	1.424297	12.688883	6.128691
O	1.424297	15.537477	3.280096
O	3.501886	12.873449	8.206279
O	8.293245	10.545531	5.819935
O	1.115542	12.997638	1.136745
O	1.115542	10.545531	3.588851
O	8.293245	12.997638	8.272042
O	8.169055	10.611294	1.202507
O	5.906901	17.615066	5.944124
O	5.906901	10.611294	3.464662
O	8.169055	17.615066	8.206279
O	8.293245	15.228722	1.136745
O	1.115542	17.680829	5.819935
O	1.115542	15.228722	8.272042
O	8.293245	17.680829	3.588851
O	7.984489	15.537477	6.128691
O	5.906901	12.873449	1.202507
O	5.906901	15.352911	8.206279
O	7.984489	12.688883	3.280096
Mg	2.329817	11.783363	11.783363
Mg	4.704393	9.408787	14.113180
Mg	2.329817	16.442997	16.442997
Mg	4.704393	14.113180	9.408787
Mg	7.078970	11.783363	16.442997
Mg	0.000000	9.408787	9.408787
Mg	7.078970	16.442997	11.783363
Y	1.191845	17.661699	12.921335
Y	3.531465	10.581715	17.644645
Y	3.548519	12.921335	15.305025
Y	1.191845	10.564660	15.305025
Y	1.191845	12.921335	17.661699
Y	3.548519	15.305025	12.921335
Y	3.531465	17.644645	10.581715
Y	1.191845	15.305025	10.564660
Y	5.877322	17.644645	17.644645
Y	8.216942	10.564660	12.921335
Y	8.216942	12.921335	10.564660
Y	5.877322	10.581715	10.581715
Y	5.860267	12.921335	12.921335
Y	8.216942	15.305025	17.661699
Y	8.216942	17.661699	15.305025
Y	5.860267	15.305025	15.305025
O	3.587444	10.525736	10.525736
O	5.841138	12.997638	15.228722
O	5.821343	10.525736	17.700623
O	3.567649	12.997638	12.997638
O	3.501886	10.611294	15.352911
O	1.239731	17.615066	10.611294
O	1.239731	10.611294	17.615066
O	3.501886	17.615066	12.873449
O	3.567649	15.228722	15.228722
O	5.821343	17.700623	10.525736
O	5.841138	15.228722	12.997638
O	3.587444	17.700623	17.700623
O	3.501886	15.352911	10.611294
O	1.424297	12.688883	15.537477
O	1.424297	15.537477	12.688883
O	3.501886	12.873449	17.615066
O	8.293245	10.545531	15.228722
O	1.115542	12.997638	10.545531
O	1.115542	10.545531	12.997638
O	8.293245	12.997638	17.680829
O	8.169055	10.611294	10.611294
O	5.906901	17.615066	15.352911
O	5.906901	10.611294	12.873449
O	8.169055	17.615066	17.615066
O	8.293245	15.228722	10.545531
O	1.115542	17.680829	15.228722
O	1.115542	15.228722	17.680829
O	8.293245	17.680829	12.997638
O	7.984489	15.537477	15.537477
O	5.906901	12.873449	10.611294
O	5.906901	15.352911	17.615066
O	7.984489	12.688883	12.688883
Mg	11.738604	2.374576	2.374576
Mg	14.113180	0.000000	4.704393
Mg	11.738604	7.034210	7.034210
Mg	14.113180	4.704393	0.000000
Mg	16.487756	2.374576	7.034210
Mg	9.408787	0.000000	0.000000
Mg	16.487756	7.034210	2.374576
Y	10.600632	8.252913	3.512548
Y	12.940251	1.172929	8.235858
Y	12.957306	3.512548	5.896238
Y	10.600632	1.155874	5.896238
Y	10.600632	3.512548	8.252913
Y	12.957306	5.896238	3.512548
Y	12.940251	8.235858	1.172929
Y	10.600632	5.896238	1.155874
Y	15.286109	8.235858	8.235858
Y	17.625728	1.155874	3.512548
Y	17.625728	3.512548	1.155874
Y	15.286109	1.172929	1.172929
Y	15.269054	3.512548	3.512548
Y	17.625728	5.896238	8.252913
Y	17.625728	8.252913	5.896238
Y	15.269054	5.896238	5.896238
O	12.996230	1.116950	1.116950
O	15.249925	3.588851	5.819935
O	15.230130	1.116950	8.291837
O	12.976435	3.588851	3.588851
O	12.910673	1.202507	5.944124
O	10.648518	8.206279	1.202507
O	10.648518	1.202507	8.206279
O	12.910673	8.206279	3.464662
O	12.976435	5.819935	5.819935
O	15.230130	8.291837	1.116950
O	15.249925	5.819935	3.588851
O	12.996230	8.291837	8.291837
O	12.910673	5.944124	1.202507
O	10.833084	3.280096	6.128691
O	10.833084	6.128691	3.280096
O	12.910673	3.464662	8.206279
O	17.702031	1.136745	5.819935
O	10.524329	3.588851	1.136745
O	10.524329	1.136745	3.588851
O	17.702031	3.588851	8.272042
O	17.577842	1.202507	1.202507
O	15.315687	8.206279	5.944124
O	15.315687	1.202507	3.464662
O	17.577842	8.206279	8.206279
O	17.702031	5.819935	1.136745
O	10.524329	8.272042	5.819935
O	10.524329	5.819935	8.272042
O	17.702031	8.272042	3.588851
O	17.393276	6.128691	6.128691
O	15.315687	3.464662	1.202507
O	15.315687	5.944124	8.206279
O	17.393276	3.280096	3.280096
Mg	11.738604	2.374576	11.783363
Mg	14.113180	0.000000	14.113180
Mg	11.738604	7.034210	16.442997
Mg	14.113180	4.704393	9.408787
Mg	16.487756	2.374576	16.442997
Mg	9.408787	0.000000	9.408787
Mg	16.487756	7.034210	11.783363
Y	10.600632	8.252913	12.921335
Y	12.940251	1.172929	17.644645
Y	12.957306	3.512548	15.305025
Y	10.600632	1.155874	15.305025
Y	10.600632	3.512548	17.661699
Y	12.957306	5.896238	12.921335
Y	12.940251	8.235858	10.581715
Y	10.600632	5.896238	10.564660
Y	15.286109	8.235858	17.644645
Y	17.625728	1.155874	12.921335
Y	17.625728	3.512548	10.564660
Y	15.286109	1.172929	10.581715
Y	15.269054	3.512548	12.921335
Y	17.625728	5.896238	17.661699
Y	17.625728	8.252913	15.305025
Y	15.269054	5.896238	15.305025
O	12.996230	1.116950	10.525736
O	15.249925	3.588851	15.228722
O	15.230130	1.116950	17.700623
O	12.976435	3.588851	12.997638
O	12.910673	1.202507	15.352911
O	10.648518	8.206279	10.611294
O	10.648518	1.202507	17.615066
O	12.910673	8.206279	12.873449
O	12.976435	5.819935	15.228722
O	15.230130	8.291837	10.525736
O	15.249925	5.819935	12.997638
O	12.996230	8.291837	17.700623
O	12.910673	5.944124	10.611294
O	10.833084	3.280096	15.537477
O	10.833084	6.128691	12.688883
O	12.910673	3.464662	17.615066
O	17.702031	1.136745	15.228722
O	10.524329	3.588851	10.545531
O	10.524329	1.136745	12.997638
O	17.702031	3.588851	17.680829
O	17.577842	1.202507	10.611294
O	15.315687	8.206279	15.352911
O	15.315687	1.202507	12.873449
O	17.577842	8.206279	17.615066
O	17.702031	5.819935	10.545531
O	10.524329	8.272042	15.228722
O	10.524329	5.819935	17.680829
O	17.702031	8.272042	12.997638
O	17.393276	6.128691	15.537477
O	15.315687	3.464662	10.611294
O	15.315687	5.944124	17.615066
O	17.393276	3.280096	12.688883
Mg	11.738604	11.783363	2.374576
Mg	14.113180	9.408787	4.704393
Mg	11.738604	16.442997	7.034210
Mg	14.113180	14.113180	0.000000
Mg	16.487756	11.783363	7.034210
Mg	9.408787	9.408787	0.000000
Mg	16.487756	16.442997	2.374576
Y	10.600632	17.661699	3.512548
Y	12.940251	10.581715	8.235858
Y	12.957306	12.921335	5.896238
Y	10.600632	10.564660	5.896238
Y	10.600632	12.921335	8.252913
Y	12.957306	15.305025	3.512548
Y	12.940251	17.644645	1.172929
Y	10.600632	15.305025	1.155874
Y	15.286109	17.644645	8.235858
Y	17.625728	10.564660	3.512548
Y	17.625728	12.921335	1.155874
Y	15.286109	10.581715	1.172929
Y	15.269054	12.921335	3.512548
Y	17.625728	15.305025	8.252913
Y	17.625728	17.661699	5.896238
Y	15.269054	15.305025	5.896238
O	12.996230	10.525736	1.116950
O	15.249925	12.997638	5.819935
O	15.230130	10.525736	8.291837
O	12.976435	12.997638	3.588851
O	12.910673	10.611294	5.944124
O	10.648518	17.615066	1.202507
O	10.648518	10.611294	8.206279
O	12.910673	17.615066	3.464662
O	12.976435	15.228722	5.819935
O	15.230130	17.700623	1.116950
O	15.249925	15.228722	3.588851
O	12.996230	17.700623	8.291837
O	12.910673	15.352911	1.202507
O	10.833084	12.688883	6.128691
O	10.833084	15.537477	3.280096
O	12.910673	12.873449	8.206279
O	17.702031	10.545531	5.819935
O	10.524329	12.997638	1.136745
O	10.524329	10.545531	3.588851
O	17.702031	12.997638	8.272042
O	17.577842	10.611294	1.202507
O	15.315687	17.615066	5.944124
O	15.315687	10.611294	3.464662
O	17.577842	17.615066	8.206279
O	17.702031	15.228722	1.136745
O	10.524329	17.680829	5.819935
O	10.524329	15.228722	8.272042
O	17.702031	17.680829	3.588851
O	17.393276	15.537477	6.128691
O	15.315687	12.873449	1.202507
O	15.315687	15.352911	8.206279
O	17.393276	12.688883	3.280096
Mg	11.738604	11.783363	11.783363
Mg	14.113180	9.408787	14.113180
Mg	11.738604	16.442997	16.442997
Mg	14.113180	14.113180	9.408787
Mg	16.487756	11.783363	16.442997
Mg	9.408787	9.408787	9.408787
Mg	16.487756	16.442997	11.783363
Y	10.600632	17.661699	12.921335
Y	12.940251	10.581715	17.644645
Y	12.957306	12.921335	15.305025
Y	10.600632	10.564660	15.305025
Y	10.600632	12.921335	17.661699
Y	12.957306	15.305025	12.921335
Y	12.940251	17.644645	10.581715
Y	10.600632	15.305025	10.564660
Y	15.286109	17.644645	17.644645
Y	17.625728	10.564660	12.921335
Y	17.625728	12.921335	10.564660
Y	15.286109	10.581715	10.581715
Y	15.269054	12.921335	12.921335
Y	17.625728	15.305025	17.661699
Y	17.625728	17.661699	15.305025
Y	15.269054	15.305025	15.305025
O	12.996230	10.525736	10.525736
O	15.249925	12.997638	15.228722
O	15.230130	10.525736	17.700623
O	12.976435	12.997638	12.997638
O	12.910673	10.611294	15.352911
O	10.648518	17.615066	10.611294
O	10.648518	10.611294	17.615066
O	12.910673	17.615066	12.873449
O	12.976435	15.228722	15.228722
O	15.230130	17.700623	10.525736
O	15.249925	15.228722	12.997638
O	12.996230	17.700623	17.700623
O	12.910673	15.352911	10.611294
O	10.833084	12.688883	15.537477
O	10.833084	15.537477	12.688883
O	12.910673	12.873449	17.615066
O	17.702031	10.545531	15.228722
O	10.524329	12.997638	10.545531
O	10.524329	10.545531	12.997638
O	17.702031	12.997638	17.680829
O	17.577842	10.611294	10.611294
O	15.315687	17.615066	15.352911
O	15.315687	10.611294	12.873449
O	17.577842	17.615066	17.615066
O	17.702031	15.228722	10.545531
O	10.524329	17.680829	15.228722
O	10.524329	15.228722	17.680829
O	17.702031	17.680829	12.997638
O	17.393276	15.537477	15.537477
O	15.315687	12.873449	10.611294
O	15.315687	15.352911	17.615066
O	17.393276	12.688883	12.688883
