40

Cu	0.000000	0.000000	0.000000
O	0.000000	1.818326	1.818326
O	1.818326	0.000000	1.818326
O	1.818326	1.818326	0.000000
S	1.818326	1.818326	1.818326
Cu	0.000000	0.000000	3.636651
O	0.000000	1.818326	5.454977
O	1.818326	0.000000	5.454977
O	1.818326	1.818326	3.636651
S	1.818326	1.818326	5.454977
Cu	0.000000	3.636651	0.000000
O	0.000000	5.454977	1.818326
O	1.818326	3.636651	1.818326
O	1.818326	5.454977	0.000000
S	1.818326	5.454977	1.818326
Cu	0.000000	3.636651	3.636651
O	0.000000	5.454977	5.454977
O	1.818326	3.636651	5.454977
O	1.818326	5.454977	3.636651
S	1.818326	5.454977	5.454977
Cu	3.636651	0.000000	0.000000
O	3.636651	1.818326	1.818326
O	5.454977	0.000000	1.818326
O	5.454977	1.818326	0.000000
S	5.454977	1.818326	1.818326
Cu	3.636651	0.000000	3.636651
O	3.636651	1.818326	5.454977
O	5.454977	0.000000	5.454977
O	5.454977	1.818326	3.636651
S	5.454977	1.818326	5.454977
Cu	3.636651	3.636651	0.000000
O	3.636651	5.454977	1.818326
O	5.454977	3.636651	1.818326
O	5.454977	5.454977	0.000000
S	5.454977	5.454977	1.818326
Cu	3.636651	3.636651	3.636651
O	3.636651	5.454977	5.454977
O	5.454977	3.636651	5.454977
O	5.454977	5.454977	3.636651
S	5.454977	5.454977	5.454977
