112

Mn	0.000000	0.000000	0.000000
Mn	2.188671	-2.188636	-2.188636
O	3.362644	-1.014024	-1.014024
O	-1.014697	1.014024	-3.363248
O	1.014697	-1.014024	-3.363248
O	1.173973	1.174612	-1.174612
O	5.392039	1.014024	-1.014024
O	1.173973	3.202660	-3.202660
O	3.203368	3.202660	-1.174612
O	3.203368	1.174612	-3.202660
Pd	-1.094335	-1.094318	-3.282954
Pd	3.283006	1.094318	-1.094318
Pd	5.471677	-1.094318	-1.094318
Pd	1.094335	1.094318	-3.282954
Mn	4.377342	4.377272	0.000000
Mn	6.566013	2.188636	-2.188636
O	7.739986	3.363248	-1.014024
O	3.362644	5.391296	-3.363248
O	5.392039	3.363248	-3.363248
O	5.551315	5.551884	-1.174612
O	9.769381	5.391296	-1.014024
O	5.551315	7.579932	-3.202660
O	7.580710	7.579932	-1.174612
O	7.580710	5.551884	-3.202660
Pd	3.283006	3.282954	-3.282954
Pd	7.660348	5.471590	-1.094318
Pd	9.849019	3.282954	-1.094318
Pd	5.471677	5.471590	-3.282954
Mn	-4.377342	0.000000	-4.377272
Mn	-2.188671	-2.188636	-6.565908
O	-1.014697	-1.014024	-5.391296
O	-5.392039	1.014024	-7.740520
O	-3.362644	-1.014024	-7.740520
O	-3.203368	1.174612	-5.551884
O	1.014697	1.014024	-5.391296
O	-3.203368	3.202660	-7.579932
O	-1.173973	3.202660	-5.551884
O	-1.173973	1.174612	-7.579932
Pd	-5.471677	-1.094318	-7.660226
Pd	-1.094335	1.094318	-5.471590
Pd	1.094335	-1.094318	-5.471590
Pd	-3.283006	1.094318	-7.660226
Mn	0.000000	4.377272	-4.377272
Mn	2.188671	2.188636	-6.565908
O	3.362644	3.363248	-5.391296
O	-1.014697	5.391296	-7.740520
O	1.014697	3.363248	-7.740520
O	1.173973	5.551884	-5.551884
O	5.392039	5.391296	-5.391296
O	1.173973	7.579932	-7.579932
O	3.203368	7.579932	-5.551884
O	3.203368	5.551884	-7.579932
Pd	-1.094335	3.282954	-7.660226
Pd	3.283006	5.471590	-5.471590
Pd	5.471677	3.282954	-5.471590
Pd	1.094335	5.471590	-7.660226
Mn	4.377342	-4.377272	0.000000
Mn	6.566013	-6.565908	-2.188636
O	7.739986	-5.391296	-1.014024
O	3.362644	-3.363248	-3.363248
O	5.392039	-5.391296	-3.363248
O	5.551315	-3.202660	-1.174612
O	9.769381	-3.363248	-1.014024
O	5.551315	-1.174612	-3.202660
O	7.580710	-1.174612	-1.174612
O	7.580710	-3.202660	-3.202660
Pd	3.283006	-5.471590	-3.282954
Pd	7.660348	-3.282954	-1.094318
Pd	9.849019	-5.471590	-1.094318
Pd	5.471677	-3.282954	-3.282954
Mn	8.754684	0.000000	0.000000
Mn	10.943355	-2.188636	-2.188636
O	12.117328	-1.014024	-1.014024
O	7.739986	1.014024	-3.363248
O	9.769381	-1.014024	-3.363248
O	9.928657	1.174612	-1.174612
O	14.146723	1.014024	-1.014024
O	9.928657	3.202660	-3.202660
O	11.958052	3.202660	-1.174612
O	11.958052	1.174612	-3.202660
Pd	7.660348	-1.094318	-3.282954
Pd	12.037690	1.094318	-1.094318
Pd	14.226361	-1.094318	-1.094318
Pd	9.849019	1.094318	-3.282954
Mn	0.000000	-4.377272	-4.377272
Mn	2.188671	-6.565908	-6.565908
O	3.362644	-5.391296	-5.391296
O	-1.014697	-3.363248	-7.740520
O	1.014697	-5.391296	-7.740520
O	1.173973	-3.202660	-5.551884
O	5.392039	-3.363248	-5.391296
O	1.173973	-1.174612	-7.579932
O	3.203368	-1.174612	-5.551884
O	3.203368	-3.202660	-7.579932
Pd	-1.094335	-5.471590	-7.660226
Pd	3.283006	-3.282954	-5.471590
Pd	5.471677	-5.471590	-5.471590
Pd	1.094335	-3.282954	-7.660226
Mn	4.377342	0.000000	-4.377272
Mn	6.566013	-2.188636	-6.565908
O	7.739986	-1.014024	-5.391296
O	3.362644	1.014024	-7.740520
O	5.392039	-1.014024	-7.740520
O	5.551315	1.174612	-5.551884
O	9.769381	1.014024	-5.391296
O	5.551315	3.202660	-7.579932
O	7.580710	3.202660	-5.551884
O	7.580710	1.174612	-7.579932
Pd	3.283006	-1.094318	-7.660226
Pd	7.660348	1.094318	-5.471590
Pd	9.849019	-1.094318	-5.471590
Pd	5.471677	1.094318	-7.660226
