40

Cl	0.000000	0.000000	0.000000
Ni	1.866186	1.866186	1.866186
O	0.000000	1.866186	1.866186
O	1.866186	0.000000	1.866186
O	1.866186	1.866186	0.000000
Cl	0.000000	0.000000	3.732372
Ni	1.866186	1.866186	5.598558
O	0.000000	1.866186	5.598558
O	1.866186	0.000000	5.598558
O	1.866186	1.866186	3.732372
Cl	0.000000	3.732372	0.000000
Ni	1.866186	5.598558	1.866186
O	0.000000	5.598558	1.866186
O	1.866186	3.732372	1.866186
O	1.866186	5.598558	0.000000
Cl	0.000000	3.732372	3.732372
Ni	1.866186	5.598558	5.598558
O	0.000000	5.598558	5.598558
O	1.866186	3.732372	5.598558
O	1.866186	5.598558	3.732372
Cl	3.732372	0.000000	0.000000
Ni	5.598558	1.866186	1.866186
O	3.732372	1.866186	1.866186
O	5.598558	0.000000	1.866186
O	5.598558	1.866186	0.000000
Cl	3.732372	0.000000	3.732372
Ni	5.598558	1.866186	5.598558
O	3.732372	1.866186	5.598558
O	5.598558	0.000000	5.598558
O	5.598558	1.866186	3.732372
Cl	3.732372	3.732372	0.000000
Ni	5.598558	5.598558	1.866186
O	3.732372	5.598558	1.866186
O	5.598558	3.732372	1.866186
O	5.598558	5.598558	0.000000
Cl	3.732372	3.732372	3.732372
Ni	5.598558	5.598558	5.598558
O	3.732372	5.598558	5.598558
O	5.598558	3.732372	5.598558
O	5.598558	5.598558	3.732372
