40

Ac	2.344739	2.344739	2.344739
O	2.344739	2.344739	0.000000
O	2.344739	0.000000	2.344739
O	0.000000	2.344739	2.344739
Te	0.000000	0.000000	0.000000
Ac	2.344739	2.344739	7.034216
O	2.344739	2.344739	4.689477
O	2.344739	0.000000	7.034216
O	0.000000	2.344739	7.034216
Te	0.000000	0.000000	4.689477
Ac	2.344739	7.034216	2.344739
O	2.344739	7.034216	0.000000
O	2.344739	4.689477	2.344739
O	0.000000	7.034216	2.344739
Te	0.000000	4.689477	0.000000
Ac	2.344739	7.034216	7.034216
O	2.344739	7.034216	4.689477
O	2.344739	4.689477	7.034216
O	0.000000	7.034216	7.034216
Te	0.000000	4.689477	4.689477
Ac	7.034216	2.344739	2.344739
O	7.034216	2.344739	0.000000
O	7.034216	0.000000	2.344739
O	4.689477	2.344739	2.344739
Te	4.689477	0.000000	0.000000
Ac	7.034216	2.344739	7.034216
O	7.034216	2.344739	4.689477
O	7.034216	0.000000	7.034216
O	4.689477	2.344739	7.034216
Te	4.689477	0.000000	4.689477
Ac	7.034216	7.034216	2.344739
O	7.034216	7.034216	0.000000
O	7.034216	4.689477	2.344739
O	4.689477	7.034216	2.344739
Te	4.689477	4.689477	0.000000
Ac	7.034216	7.034216	7.034216
O	7.034216	7.034216	4.689477
O	7.034216	4.689477	7.034216
O	4.689477	7.034216	7.034216
Te	4.689477	4.689477	4.689477
