40

Fe	0.000000	0.000000	0.000000
O	2.011116	2.011116	0.000000
O	2.011116	0.000000	2.011116
O	0.000000	2.011116	2.011116
Sb	2.011116	2.011116	2.011116
Fe	0.000000	0.000000	4.022233
O	2.011116	2.011116	4.022233
O	2.011116	0.000000	6.033349
O	0.000000	2.011116	6.033349
Sb	2.011116	2.011116	6.033349
Fe	0.000000	4.022233	0.000000
O	2.011116	6.033349	0.000000
O	2.011116	4.022233	2.011116
O	0.000000	6.033349	2.011116
Sb	2.011116	6.033349	2.011116
Fe	0.000000	4.022233	4.022233
O	2.011116	6.033349	4.022233
O	2.011116	4.022233	6.033349
O	0.000000	6.033349	6.033349
Sb	2.011116	6.033349	6.033349
Fe	4.022233	0.000000	0.000000
O	6.033349	2.011116	0.000000
O	6.033349	0.000000	2.011116
O	4.022233	2.011116	2.011116
Sb	6.033349	2.011116	2.011116
Fe	4.022233	0.000000	4.022233
O	6.033349	2.011116	4.022233
O	6.033349	0.000000	6.033349
O	4.022233	2.011116	6.033349
Sb	6.033349	2.011116	6.033349
Fe	4.022233	4.022233	0.000000
O	6.033349	6.033349	0.000000
O	6.033349	4.022233	2.011116
O	4.022233	6.033349	2.011116
Sb	6.033349	6.033349	2.011116
Fe	4.022233	4.022233	4.022233
O	6.033349	6.033349	4.022233
O	6.033349	4.022233	6.033349
O	4.022233	6.033349	6.033349
Sb	6.033349	6.033349	6.033349
