40

Hf	2.036673	2.036673	2.036673
O	0.000000	2.036673	2.036673
O	2.036673	0.000000	2.036673
O	2.036673	2.036673	0.000000
Zn	0.000000	0.000000	0.000000
Hf	2.036673	2.036673	6.110018
O	0.000000	2.036673	6.110018
O	2.036673	0.000000	6.110018
O	2.036673	2.036673	4.073345
Zn	0.000000	0.000000	4.073345
Hf	2.036673	6.110018	2.036673
O	0.000000	6.110018	2.036673
O	2.036673	4.073345	2.036673
O	2.036673	6.110018	0.000000
Zn	0.000000	4.073345	0.000000
Hf	2.036673	6.110018	6.110018
O	0.000000	6.110018	6.110018
O	2.036673	4.073345	6.110018
O	2.036673	6.110018	4.073345
Zn	0.000000	4.073345	4.073345
Hf	6.110018	2.036673	2.036673
O	4.073345	2.036673	2.036673
O	6.110018	0.000000	2.036673
O	6.110018	2.036673	0.000000
Zn	4.073345	0.000000	0.000000
Hf	6.110018	2.036673	6.110018
O	4.073345	2.036673	6.110018
O	6.110018	0.000000	6.110018
O	6.110018	2.036673	4.073345
Zn	4.073345	0.000000	4.073345
Hf	6.110018	6.110018	2.036673
O	4.073345	6.110018	2.036673
O	6.110018	4.073345	2.036673
O	6.110018	6.110018	0.000000
Zn	4.073345	4.073345	0.000000
Hf	6.110018	6.110018	6.110018
O	4.073345	6.110018	6.110018
O	6.110018	4.073345	6.110018
O	6.110018	6.110018	4.073345
Zn	4.073345	4.073345	4.073345
