40

F	0.000000	0.000000	0.000000
Na	2.293651	2.293651	2.293651
O	0.000000	2.293651	2.293651
O	2.293651	0.000000	2.293651
O	2.293651	2.293651	0.000000
F	0.000000	0.000000	4.587302
Na	2.293651	2.293651	6.880954
O	0.000000	2.293651	6.880954
O	2.293651	0.000000	6.880954
O	2.293651	2.293651	4.587302
F	0.000000	4.587302	0.000000
Na	2.293651	6.880954	2.293651
O	0.000000	6.880954	2.293651
O	2.293651	4.587302	2.293651
O	2.293651	6.880954	0.000000
F	0.000000	4.587302	4.587302
Na	2.293651	6.880954	6.880954
O	0.000000	6.880954	6.880954
O	2.293651	4.587302	6.880954
O	2.293651	6.880954	4.587302
F	4.587302	0.000000	0.000000
Na	6.880954	2.293651	2.293651
O	4.587302	2.293651	2.293651
O	6.880954	0.000000	2.293651
O	6.880954	2.293651	0.000000
F	4.587302	0.000000	4.587302
Na	6.880954	2.293651	6.880954
O	4.587302	2.293651	6.880954
O	6.880954	0.000000	6.880954
O	6.880954	2.293651	4.587302
F	4.587302	4.587302	0.000000
Na	6.880954	6.880954	2.293651
O	4.587302	6.880954	2.293651
O	6.880954	4.587302	2.293651
O	6.880954	6.880954	0.000000
F	4.587302	4.587302	4.587302
Na	6.880954	6.880954	6.880954
O	4.587302	6.880954	6.880954
O	6.880954	4.587302	6.880954
O	6.880954	6.880954	4.587302
