40

F	1.809210	1.809210	1.809210
O	0.000000	1.809210	1.809210
O	1.809210	0.000000	1.809210
O	1.809210	1.809210	0.000000
V	0.000000	0.000000	0.000000
F	1.809210	1.809210	5.427629
O	0.000000	1.809210	5.427629
O	1.809210	0.000000	5.427629
O	1.809210	1.809210	3.618419
V	0.000000	0.000000	3.618419
F	1.809210	5.427629	1.809210
O	0.000000	5.427629	1.809210
O	1.809210	3.618419	1.809210
O	1.809210	5.427629	0.000000
V	0.000000	3.618419	0.000000
F	1.809210	5.427629	5.427629
O	0.000000	5.427629	5.427629
O	1.809210	3.618419	5.427629
O	1.809210	5.427629	3.618419
V	0.000000	3.618419	3.618419
F	5.427629	1.809210	1.809210
O	3.618419	1.809210	1.809210
O	5.427629	0.000000	1.809210
O	5.427629	1.809210	0.000000
V	3.618419	0.000000	0.000000
F	5.427629	1.809210	5.427629
O	3.618419	1.809210	5.427629
O	5.427629	0.000000	5.427629
O	5.427629	1.809210	3.618419
V	3.618419	0.000000	3.618419
F	5.427629	5.427629	1.809210
O	3.618419	5.427629	1.809210
O	5.427629	3.618419	1.809210
O	5.427629	5.427629	0.000000
V	3.618419	3.618419	0.000000
F	5.427629	5.427629	5.427629
O	3.618419	5.427629	5.427629
O	5.427629	3.618419	5.427629
O	5.427629	5.427629	3.618419
V	3.618419	3.618419	3.618419
