40

Nb	1.996788	1.996788	1.996788
O	0.000000	1.996788	1.996788
O	1.996788	0.000000	1.996788
O	1.996788	1.996788	0.000000
Pt	0.000000	0.000000	0.000000
Nb	1.996788	1.996788	5.990363
O	0.000000	1.996788	5.990363
O	1.996788	0.000000	5.990363
O	1.996788	1.996788	3.993575
Pt	0.000000	0.000000	3.993575
Nb	1.996788	5.990363	1.996788
O	0.000000	5.990363	1.996788
O	1.996788	3.993575	1.996788
O	1.996788	5.990363	0.000000
Pt	0.000000	3.993575	0.000000
Nb	1.996788	5.990363	5.990363
O	0.000000	5.990363	5.990363
O	1.996788	3.993575	5.990363
O	1.996788	5.990363	3.993575
Pt	0.000000	3.993575	3.993575
Nb	5.990363	1.996788	1.996788
O	3.993575	1.996788	1.996788
O	5.990363	0.000000	1.996788
O	5.990363	1.996788	0.000000
Pt	3.993575	0.000000	0.000000
Nb	5.990363	1.996788	5.990363
O	3.993575	1.996788	5.990363
O	5.990363	0.000000	5.990363
O	5.990363	1.996788	3.993575
Pt	3.993575	0.000000	3.993575
Nb	5.990363	5.990363	1.996788
O	3.993575	5.990363	1.996788
O	5.990363	3.993575	1.996788
O	5.990363	5.990363	0.000000
Pt	3.993575	3.993575	0.000000
Nb	5.990363	5.990363	5.990363
O	3.993575	5.990363	5.990363
O	5.990363	3.993575	5.990363
O	5.990363	5.990363	3.993575
Pt	3.993575	3.993575	3.993575
