40

Ni	1.857941	1.857941	1.857941
O	0.000000	1.857941	1.857941
O	1.857941	0.000000	1.857941
O	1.857941	1.857941	0.000000
Ru	0.000000	0.000000	0.000000
Ni	1.857941	1.857941	5.573824
O	0.000000	1.857941	5.573824
O	1.857941	0.000000	5.573824
O	1.857941	1.857941	3.715883
Ru	0.000000	0.000000	3.715883
Ni	1.857941	5.573824	1.857941
O	0.000000	5.573824	1.857941
O	1.857941	3.715883	1.857941
O	1.857941	5.573824	0.000000
Ru	0.000000	3.715883	0.000000
Ni	1.857941	5.573824	5.573824
O	0.000000	5.573824	5.573824
O	1.857941	3.715883	5.573824
O	1.857941	5.573824	3.715883
Ru	0.000000	3.715883	3.715883
Ni	5.573824	1.857941	1.857941
O	3.715883	1.857941	1.857941
O	5.573824	0.000000	1.857941
O	5.573824	1.857941	0.000000
Ru	3.715883	0.000000	0.000000
Ni	5.573824	1.857941	5.573824
O	3.715883	1.857941	5.573824
O	5.573824	0.000000	5.573824
O	5.573824	1.857941	3.715883
Ru	3.715883	0.000000	3.715883
Ni	5.573824	5.573824	1.857941
O	3.715883	5.573824	1.857941
O	5.573824	3.715883	1.857941
O	5.573824	5.573824	0.000000
Ru	3.715883	3.715883	0.000000
Ni	5.573824	5.573824	5.573824
O	3.715883	5.573824	5.573824
O	5.573824	3.715883	5.573824
O	5.573824	5.573824	3.715883
Ru	3.715883	3.715883	3.715883
