112

Li	0.000000	0.000000	0.000000
Li	2.397595	-2.403476	-2.403476
O	3.637255	-1.103894	-1.103894
O	-1.157934	1.103894	-3.703057
O	1.157934	-1.103894	-3.703057
O	1.239661	1.299581	-1.299581
O	5.953124	1.103894	-1.103894
O	1.239661	3.507370	-3.507370
O	3.555529	3.507370	-1.299581
O	3.555529	1.299581	-3.507370
U	-1.198797	-1.201738	-3.605214
U	3.596392	1.201738	-1.201738
U	5.993987	-1.201738	-1.201738
U	1.198797	1.201738	-3.605214
Li	4.795190	4.806952	0.000000
Li	7.192785	2.403476	-2.403476
O	8.432445	3.703057	-1.103894
O	3.637256	5.910846	-3.703057
O	5.953124	3.703057	-3.703057
O	6.034850	6.106533	-1.299581
O	10.748314	5.910846	-1.103894
O	6.034850	8.314322	-3.507370
O	8.350719	8.314322	-1.299581
O	8.350719	6.106533	-3.507370
U	3.596392	3.605214	-3.605214
U	8.391582	6.008690	-1.201738
U	10.789177	3.605214	-1.201738
U	5.993987	6.008690	-3.605214
Li	-4.795190	0.000000	-4.806952
Li	-2.397595	-2.403476	-7.210428
O	-1.157934	-1.103894	-5.910846
O	-5.953124	1.103894	-8.510009
O	-3.637255	-1.103894	-8.510009
O	-3.555529	1.299581	-6.106533
O	1.157934	1.103894	-5.910846
O	-3.555529	3.507370	-8.314322
O	-1.239661	3.507370	-6.106533
O	-1.239661	1.299581	-8.314322
U	-5.993987	-1.201738	-8.412165
U	-1.198797	1.201738	-6.008690
U	1.198797	-1.201738	-6.008690
U	-3.596392	1.201738	-8.412165
Li	0.000000	4.806952	-4.806952
Li	2.397595	2.403476	-7.210428
O	3.637255	3.703057	-5.910846
O	-1.157934	5.910846	-8.510009
O	1.157934	3.703057	-8.510009
O	1.239661	6.106533	-6.106533
O	5.953124	5.910846	-5.910846
O	1.239661	8.314322	-8.314322
O	3.555529	8.314322	-6.106533
O	3.555529	6.106533	-8.314322
U	-1.198797	3.605214	-8.412165
U	3.596392	6.008690	-6.008690
U	5.993987	3.605214	-6.008690
U	1.198797	6.008690	-8.412165
Li	4.795190	-4.806952	0.000000
Li	7.192785	-7.210428	-2.403476
O	8.432445	-5.910846	-1.103894
O	3.637256	-3.703057	-3.703057
O	5.953124	-5.910846	-3.703057
O	6.034850	-3.507370	-1.299581
O	10.748314	-3.703057	-1.103894
O	6.034850	-1.299581	-3.507370
O	8.350719	-1.299581	-1.299581
O	8.350719	-3.507370	-3.507370
U	3.596392	-6.008690	-3.605214
U	8.391582	-3.605214	-1.201738
U	10.789177	-6.008690	-1.201738
U	5.993987	-3.605214	-3.605214
Li	9.590379	0.000000	0.000000
Li	11.987974	-2.403476	-2.403476
O	13.227635	-1.103894	-1.103894
O	8.432445	1.103894	-3.703057
O	10.748314	-1.103894	-3.703057
O	10.830040	1.299581	-1.299581
O	15.543503	1.103894	-1.103894
O	10.830040	3.507370	-3.507370
O	13.145908	3.507370	-1.299581
O	13.145908	1.299581	-3.507370
U	8.391582	-1.201738	-3.605214
U	13.186772	1.201738	-1.201738
U	15.584366	-1.201738	-1.201738
U	10.789177	1.201738	-3.605214
Li	0.000000	-4.806952	-4.806952
Li	2.397595	-7.210428	-7.210428
O	3.637255	-5.910846	-5.910846
O	-1.157934	-3.703057	-8.510009
O	1.157934	-5.910846	-8.510009
O	1.239661	-3.507370	-6.106533
O	5.953124	-3.703057	-5.910846
O	1.239661	-1.299581	-8.314322
O	3.555529	-1.299581	-6.106533
O	3.555529	-3.507370	-8.314322
U	-1.198797	-6.008690	-8.412165
U	3.596392	-3.605214	-6.008690
U	5.993987	-6.008690	-6.008690
U	1.198797	-3.605214	-8.412165
Li	4.795190	0.000000	-4.806952
Li	7.192785	-2.403476	-7.210428
O	8.432445	-1.103894	-5.910846
O	3.637256	1.103894	-8.510009
O	5.953124	-1.103894	-8.510009
O	6.034850	1.299581	-6.106533
O	10.748314	1.103894	-5.910846
O	6.034850	3.507370	-8.314322
O	8.350719	3.507370	-6.106533
O	8.350719	1.299581	-8.314322
U	3.596392	-1.201738	-8.412165
U	8.391582	1.201738	-6.008690
U	10.789177	-1.201738	-6.008690
U	5.993987	1.201738	-8.412165
