112

Na	0.000000	0.000000	0.000000
Na	2.238933	-2.239344	-2.239344
O	3.528146	-0.949326	-0.949326
O	-0.949710	0.949326	-3.529352
O	0.949710	-0.949326	-3.529352
O	1.289213	1.290008	-1.290008
O	5.427575	0.949326	-0.949326
O	1.289213	3.188670	-3.188670
O	3.188642	3.188670	-1.290008
O	3.188642	1.290008	-3.188670
Re	-1.119461	-1.119672	-3.359006
Re	1.119461	1.119672	-3.359006
Re	5.597327	-1.119672	-1.119672
Re	3.358394	1.119672	-1.119672
Na	4.477858	4.478678	0.000000
Na	6.716791	2.239334	-2.239344
O	8.006004	3.529352	-0.949326
O	3.528149	5.428004	-3.529352
O	5.427568	3.529352	-3.529352
O	5.767071	5.768686	-1.290008
O	9.905433	5.428004	-0.949326
O	5.767071	7.667348	-3.188670
O	7.666501	7.667348	-1.290008
O	7.666501	5.768686	-3.188670
Re	3.358397	3.359006	-3.359006
Re	5.597320	5.598350	-3.359006
Re	10.075185	3.359006	-1.119672
Re	7.836252	5.598350	-1.119672
Na	-4.477858	0.000000	-4.478678
Na	-2.238925	-2.239344	-6.718022
O	-0.949712	-0.949326	-5.428004
O	-5.427568	0.949326	-8.008030
O	-3.528149	-0.949326	-8.008030
O	-3.188645	1.290008	-5.768686
O	0.949717	0.949326	-5.428004
O	-3.188645	3.188670	-7.667348
O	-1.289216	3.188670	-5.768686
O	-1.289216	1.290008	-7.667348
Re	-5.597320	-1.119672	-7.837684
Re	-3.358397	1.119672	-7.837684
Re	1.119469	-1.119672	-5.598350
Re	-1.119464	1.119672	-5.598350
Na	0.000000	4.478678	-4.478678
Na	2.238933	2.239334	-6.718022
O	3.528146	3.529352	-5.428004
O	-0.949710	5.428004	-8.008030
O	0.949710	3.529352	-8.008030
O	1.289213	5.768686	-5.768686
O	5.427575	5.428004	-5.428004
O	1.289213	7.667348	-7.667348
O	3.188642	7.667348	-5.768686
O	3.188642	5.768686	-7.667348
Re	-1.119461	3.359006	-7.837684
Re	1.119461	5.598350	-7.837684
Re	5.597327	3.359006	-5.598350
Re	3.358394	5.598350	-5.598350
Na	4.477858	-4.478678	0.000000
Na	6.716791	-6.718022	-2.239344
O	8.006004	-5.428004	-0.949326
O	3.528149	-3.529352	-3.529352
O	5.427568	-5.428004	-3.529352
O	5.767071	-3.188670	-1.290008
O	9.905433	-3.529352	-0.949326
O	5.767071	-1.290008	-3.188670
O	7.666501	-1.290008	-1.290008
O	7.666501	-3.188670	-3.188670
Re	3.358397	-5.598350	-3.359006
Re	5.597320	-3.359006	-3.359006
Re	10.075185	-5.598350	-1.119672
Re	7.836252	-3.359006	-1.119672
Na	8.955716	0.000000	0.000000
Na	11.194649	-2.239344	-2.239344
O	12.483862	-0.949326	-0.949326
O	8.006007	0.949326	-3.529352
O	9.905426	-0.949326	-3.529352
O	10.244930	1.290008	-1.290008
O	14.383291	0.949326	-0.949326
O	10.244930	3.188670	-3.188670
O	12.144359	3.188670	-1.290008
O	12.144359	1.290008	-3.188670
Re	7.836255	-1.119672	-3.359006
Re	10.075178	1.119672	-3.359006
Re	14.553043	-1.119672	-1.119672
Re	12.314111	1.119672	-1.119672
Na	0.000000	-4.478678	-4.478678
Na	2.238933	-6.718022	-6.718022
O	3.528146	-5.428004	-5.428004
O	-0.949710	-3.529352	-8.008030
O	0.949710	-5.428004	-8.008030
O	1.289213	-3.188670	-5.768686
O	5.427575	-3.529352	-5.428004
O	1.289213	-1.290008	-7.667348
O	3.188642	-1.290008	-5.768686
O	3.188642	-3.188670	-7.667348
Re	-1.119461	-5.598350	-7.837684
Re	1.119461	-3.359006	-7.837684
Re	5.597327	-5.598350	-5.598350
Re	3.358394	-3.359006	-5.598350
Na	4.477858	0.000000	-4.478678
Na	6.716791	-2.239344	-6.718022
O	8.006004	-0.949326	-5.428004
O	3.528149	0.949326	-8.008030
O	5.427568	-0.949326	-8.008030
O	5.767071	1.290008	-5.768686
O	9.905433	0.949326	-5.428004
O	5.767071	3.188670	-7.667348
O	7.666501	3.188670	-5.768686
O	7.666501	1.290008	-7.667348
Re	3.358397	-1.119672	-7.837684
Re	5.597320	1.119672	-7.837684
Re	10.075185	-1.119672	-5.598350
Re	7.836252	1.119672	-5.598350
