40

Be	0.000000	0.000000	0.000000
O	1.736191	1.736191	0.000000
O	1.736191	0.000000	1.736191
O	0.000000	1.736191	1.736191
Si	1.736191	1.736191	1.736191
Be	0.000000	0.000000	3.472382
O	1.736191	1.736191	3.472382
O	1.736191	0.000000	5.208573
O	0.000000	1.736191	5.208573
Si	1.736191	1.736191	5.208573
Be	0.000000	3.472382	0.000000
O	1.736191	5.208573	0.000000
O	1.736191	3.472382	1.736191
O	0.000000	5.208573	1.736191
Si	1.736191	5.208573	1.736191
Be	0.000000	3.472382	3.472382
O	1.736191	5.208573	3.472382
O	1.736191	3.472382	5.208573
O	0.000000	5.208573	5.208573
Si	1.736191	5.208573	5.208573
Be	3.472382	0.000000	0.000000
O	5.208573	1.736191	0.000000
O	5.208573	0.000000	1.736191
O	3.472382	1.736191	1.736191
Si	5.208573	1.736191	1.736191
Be	3.472382	0.000000	3.472382
O	5.208573	1.736191	3.472382
O	5.208573	0.000000	5.208573
O	3.472382	1.736191	5.208573
Si	5.208573	1.736191	5.208573
Be	3.472382	3.472382	0.000000
O	5.208573	5.208573	0.000000
O	5.208573	3.472382	1.736191
O	3.472382	5.208573	1.736191
Si	5.208573	5.208573	1.736191
Be	3.472382	3.472382	3.472382
O	5.208573	5.208573	3.472382
O	5.208573	3.472382	5.208573
O	3.472382	5.208573	5.208573
Si	5.208573	5.208573	5.208573
