40

Be	0.000000	0.000000	0.000000
O	1.723360	0.000000	1.723360
O	0.000000	1.723360	1.723360
O	1.723360	1.723360	0.000000
Si	1.723360	1.723360	1.723360
Be	0.000000	0.000000	3.446708
O	1.723360	0.000000	5.170068
O	0.000000	1.723360	5.170068
O	1.723360	1.723360	3.446708
Si	1.723360	1.723360	5.170068
Be	0.000000	3.446708	0.000000
O	1.723360	3.446708	1.723360
O	0.000000	5.170068	1.723360
O	1.723360	5.170068	0.000000
Si	1.723360	5.170068	1.723360
Be	0.000000	3.446708	3.446708
O	1.723360	3.446708	5.170068
O	0.000000	5.170068	5.170068
O	1.723360	5.170068	3.446708
Si	1.723360	5.170068	5.170068
Be	3.446708	0.000000	0.000000
O	5.170068	0.000000	1.723360
O	3.446708	1.723360	1.723360
O	5.170068	1.723360	0.000000
Si	5.170068	1.723360	1.723360
Be	3.446708	0.000000	3.446708
O	5.170068	0.000000	5.170068
O	3.446708	1.723360	5.170068
O	5.170068	1.723360	3.446708
Si	5.170068	1.723360	5.170068
Be	3.446708	3.446708	0.000000
O	5.170068	3.446708	1.723360
O	3.446708	5.170068	1.723360
O	5.170068	5.170068	0.000000
Si	5.170068	5.170068	1.723360
Be	3.446708	3.446708	3.446708
O	5.170068	3.446708	5.170068
O	3.446708	5.170068	5.170068
O	5.170068	5.170068	3.446708
Si	5.170068	5.170068	5.170068
