40

Be	1.690320	1.690320	1.690320
O	1.690320	1.690320	0.000000
O	0.000000	1.690320	1.690320
O	1.690320	0.000000	1.690320
Si	0.000000	0.000000	0.000000
Be	1.690320	1.690320	5.070966
O	1.690320	1.690320	3.380646
O	0.000000	1.690320	5.070966
O	1.690320	0.000000	5.070966
Si	0.000000	0.000000	3.380646
Be	1.690320	5.070966	1.690320
O	1.690320	5.070966	0.000000
O	0.000000	5.070966	1.690320
O	1.690320	3.380646	1.690320
Si	0.000000	3.380646	0.000000
Be	1.690320	5.070966	5.070966
O	1.690320	5.070966	3.380646
O	0.000000	5.070966	5.070966
O	1.690320	3.380646	5.070966
Si	0.000000	3.380646	3.380646
Be	5.070966	1.690320	1.690320
O	5.070966	1.690320	0.000000
O	3.380646	1.690320	1.690320
O	5.070966	0.000000	1.690320
Si	3.380646	0.000000	0.000000
Be	5.070966	1.690320	5.070966
O	5.070966	1.690320	3.380646
O	3.380646	1.690320	5.070966
O	5.070966	0.000000	5.070966
Si	3.380646	0.000000	3.380646
Be	5.070966	5.070966	1.690320
O	5.070966	5.070966	0.000000
O	3.380646	5.070966	1.690320
O	5.070966	3.380646	1.690320
Si	3.380646	3.380646	0.000000
Be	5.070966	5.070966	5.070966
O	5.070966	5.070966	3.380646
O	3.380646	5.070966	5.070966
O	5.070966	3.380646	5.070966
Si	3.380646	3.380646	3.380646
