40

I	2.063473	2.063473	2.063473
Ni	0.000000	0.000000	0.000000
O	0.000000	2.063473	2.063473
O	2.063473	0.000000	2.063473
O	2.063473	2.063473	0.000000
I	2.063473	2.063473	6.190420
Ni	0.000000	0.000000	4.126947
O	0.000000	2.063473	6.190420
O	2.063473	0.000000	6.190420
O	2.063473	2.063473	4.126947
I	2.063473	6.190420	2.063473
Ni	0.000000	4.126947	0.000000
O	0.000000	6.190420	2.063473
O	2.063473	4.126947	2.063473
O	2.063473	6.190420	0.000000
I	2.063473	6.190420	6.190420
Ni	0.000000	4.126947	4.126947
O	0.000000	6.190420	6.190420
O	2.063473	4.126947	6.190420
O	2.063473	6.190420	4.126947
I	6.190420	2.063473	2.063473
Ni	4.126947	0.000000	0.000000
O	4.126947	2.063473	2.063473
O	6.190420	0.000000	2.063473
O	6.190420	2.063473	0.000000
I	6.190420	2.063473	6.190420
Ni	4.126947	0.000000	4.126947
O	4.126947	2.063473	6.190420
O	6.190420	0.000000	6.190420
O	6.190420	2.063473	4.126947
I	6.190420	6.190420	2.063473
Ni	4.126947	4.126947	0.000000
O	4.126947	6.190420	2.063473
O	6.190420	4.126947	2.063473
O	6.190420	6.190420	0.000000
I	6.190420	6.190420	6.190420
Ni	4.126947	4.126947	4.126947
O	4.126947	6.190420	6.190420
O	6.190420	4.126947	6.190420
O	6.190420	6.190420	4.126947
