112

B	0.000000	0.000000	0.000000
B	2.205947	-2.207259	-2.207259
O	3.090312	-1.325493	-1.325493
O	-1.321581	1.325493	-3.089026
O	1.321581	-1.325493	-3.089026
O	0.884365	0.881766	-0.881766
O	5.733474	1.325493	-1.325493
O	0.884365	3.532753	-3.532753
O	3.527528	3.532753	-0.881766
O	3.527528	0.881766	-3.532753
Pu	-1.102973	-1.103630	-3.310889
Pu	3.308920	1.103630	-1.103630
Pu	5.514866	-1.103630	-1.103630
Pu	1.102973	1.103630	-3.310889
B	4.411893	4.414519	0.000000
B	6.617840	2.207259	-2.207259
O	7.502205	3.089026	-1.325493
O	3.090312	5.740012	-3.089026
O	5.733474	3.089026	-3.089026
O	5.296259	5.296285	-0.881766
O	10.145367	5.740012	-1.325493
O	5.296259	7.947271	-3.532753
O	7.939421	7.947271	-0.881766
O	7.939421	5.296285	-3.532753
Pu	3.308920	3.310889	-3.310889
Pu	7.720813	5.518148	-1.103630
Pu	9.926759	3.310889	-1.103630
Pu	5.514866	5.518148	-3.310889
B	-4.411893	0.000000	-4.414519
B	-2.205947	-2.207259	-6.621778
O	-1.321581	-1.325493	-5.740012
O	-5.733474	1.325493	-7.503544
O	-3.090312	-1.325493	-7.503544
O	-3.527528	0.881766	-5.296285
O	1.321581	1.325493	-5.740012
O	-3.527528	3.532753	-7.947271
O	-0.884365	3.532753	-5.296285
O	-0.884365	0.881766	-7.947271
Pu	-5.514866	-1.103630	-7.725408
Pu	-1.102973	1.103630	-5.518148
Pu	1.102973	-1.103630	-5.518148
Pu	-3.308920	1.103630	-7.725408
B	0.000000	4.414519	-4.414519
B	2.205947	2.207259	-6.621778
O	3.090312	3.089026	-5.740012
O	-1.321581	5.740012	-7.503544
O	1.321581	3.089026	-7.503544
O	0.884365	5.296285	-5.296285
O	5.733474	5.740012	-5.740012
O	0.884365	7.947271	-7.947271
O	3.527528	7.947271	-5.296285
O	3.527528	5.296285	-7.947271
Pu	-1.102973	3.310889	-7.725408
Pu	3.308920	5.518148	-5.518148
Pu	5.514866	3.310889	-5.518148
Pu	1.102973	5.518148	-7.725408
B	4.411893	-4.414519	0.000000
B	6.617840	-6.621778	-2.207259
O	7.502205	-5.740012	-1.325493
O	3.090312	-3.089026	-3.089026
O	5.733474	-5.740012	-3.089026
O	5.296259	-3.532753	-0.881766
O	10.145367	-3.089026	-1.325493
O	5.296259	-0.881766	-3.532753
O	7.939421	-0.881766	-0.881766
O	7.939421	-3.532753	-3.532753
Pu	3.308920	-5.518148	-3.310889
Pu	7.720813	-3.310889	-1.103630
Pu	9.926759	-5.518148	-1.103630
Pu	5.514866	-3.310889	-3.310889
B	8.823786	0.000000	0.000000
B	11.029733	-2.207259	-2.207259
O	11.914098	-1.325493	-1.325493
O	7.502205	1.325493	-3.089026
O	10.145367	-1.325493	-3.089026
O	9.708152	0.881766	-0.881766
O	14.557260	1.325493	-1.325493
O	9.708152	3.532753	-3.532753
O	12.351314	3.532753	-0.881766
O	12.351314	0.881766	-3.532753
Pu	7.720813	-1.103630	-3.310889
Pu	12.132706	1.103630	-1.103630
Pu	14.338652	-1.103630	-1.103630
Pu	9.926759	1.103630	-3.310889
B	0.000000	-4.414519	-4.414519
B	2.205947	-6.621778	-6.621778
O	3.090312	-5.740012	-5.740012
O	-1.321581	-3.089026	-7.503544
O	1.321581	-5.740012	-7.503544
O	0.884365	-3.532753	-5.296285
O	5.733474	-3.089026	-5.740012
O	0.884365	-0.881766	-7.947271
O	3.527528	-0.881766	-5.296285
O	3.527528	-3.532753	-7.947271
Pu	-1.102973	-5.518148	-7.725408
Pu	3.308920	-3.310889	-5.518148
Pu	5.514866	-5.518148	-5.518148
Pu	1.102973	-3.310889	-7.725408
B	4.411893	0.000000	-4.414519
B	6.617840	-2.207259	-6.621778
O	7.502205	-1.325493	-5.740012
O	3.090312	1.325493	-7.503544
O	5.733474	-1.325493	-7.503544
O	5.296259	0.881766	-5.296285
O	10.145367	1.325493	-5.740012
O	5.296259	3.532753	-7.947271
O	7.939421	3.532753	-5.296285
O	7.939421	0.881766	-7.947271
Pu	3.308920	-1.103630	-7.725408
Pu	7.720813	1.103630	-5.518148
Pu	9.926759	-1.103630	-5.518148
Pu	5.514866	1.103630	-7.725408
