112

O	3.698023	-1.555277	-1.555277
O	-1.555716	1.555277	-3.698836
O	1.555716	-1.555277	-3.698836
O	1.071154	1.071780	-1.071780
O	6.809455	1.555277	-1.555277
O	1.071154	4.182333	-4.182333
O	4.182585	4.182333	-1.071780
O	4.182585	1.071780	-4.182333
Pd	0.000000	0.000000	0.000000
Pd	2.626869	-2.627057	-2.627057
Rb	-1.313435	-1.313528	-3.940585
Rb	3.940304	1.313528	-1.313528
Rb	6.567174	-1.313528	-1.313528
Rb	1.313435	1.313528	-3.940585
O	8.951762	3.698836	-1.555277
O	3.698023	6.809390	-3.698836
O	6.809455	3.698836	-3.698836
O	6.324893	6.325893	-1.071780
O	12.063194	6.809390	-1.555277
O	6.324893	9.436447	-4.182333
O	9.436324	9.436447	-1.071780
O	9.436324	6.325893	-4.182333
Pd	5.253739	5.254113	0.000000
Pd	7.880608	2.627057	-2.627057
Rb	3.940304	3.940585	-3.940585
Rb	9.194043	6.567642	-1.313528
Rb	11.820913	3.940585	-1.313528
Rb	6.567174	6.567642	-3.940585
O	-1.555716	-1.555277	-6.809390
O	-6.809455	1.555277	-8.952950
O	-3.698023	-1.555277	-8.952950
O	-4.182585	1.071780	-6.325893
O	1.555716	1.555277	-6.809390
O	-4.182585	4.182333	-9.436447
O	-1.071154	4.182333	-6.325893
O	-1.071154	1.071780	-9.436447
Pd	-5.253739	0.000000	-5.254113
Pd	-2.626869	-2.627057	-7.881170
Rb	-6.567174	-1.313528	-9.194698
Rb	-1.313435	1.313528	-6.567642
Rb	1.313435	-1.313528	-6.567642
Rb	-3.940304	1.313528	-9.194698
O	3.698023	3.698836	-6.809390
O	-1.555716	6.809390	-8.952950
O	1.555716	3.698836	-8.952950
O	1.071154	6.325893	-6.325893
O	6.809455	6.809390	-6.809390
O	1.071154	9.436447	-9.436447
O	4.182585	9.436447	-6.325893
O	4.182585	6.325893	-9.436447
Pd	0.000000	5.254113	-5.254113
Pd	2.626869	2.627057	-7.881170
Rb	-1.313435	3.940585	-9.194698
Rb	3.940304	6.567642	-6.567642
Rb	6.567174	3.940585	-6.567642
Rb	1.313435	6.567642	-9.194698
O	8.951762	-6.809390	-1.555277
O	3.698023	-3.698836	-3.698836
O	6.809455	-6.809390	-3.698836
O	6.324893	-4.182333	-1.071780
O	12.063194	-3.698836	-1.555277
O	6.324893	-1.071780	-4.182333
O	9.436324	-1.071780	-1.071780
O	9.436324	-4.182333	-4.182333
Pd	5.253739	-5.254113	0.000000
Pd	7.880608	-7.881170	-2.627057
Rb	3.940304	-6.567642	-3.940585
Rb	9.194043	-3.940585	-1.313528
Rb	11.820913	-6.567642	-1.313528
Rb	6.567174	-3.940585	-3.940585
O	14.205501	-1.555277	-1.555277
O	8.951762	1.555277	-3.698836
O	12.063194	-1.555277	-3.698836
O	11.578632	1.071780	-1.071780
O	17.316933	1.555277	-1.555277
O	11.578632	4.182333	-4.182333
O	14.690063	4.182333	-1.071780
O	14.690063	1.071780	-4.182333
Pd	10.507478	0.000000	0.000000
Pd	13.134347	-2.627057	-2.627057
Rb	9.194043	-1.313528	-3.940585
Rb	14.447782	1.313528	-1.313528
Rb	17.074652	-1.313528	-1.313528
Rb	11.820913	1.313528	-3.940585
O	3.698023	-6.809390	-6.809390
O	-1.555716	-3.698836	-8.952950
O	1.555716	-6.809390	-8.952950
O	1.071154	-4.182333	-6.325893
O	6.809455	-3.698836	-6.809390
O	1.071154	-1.071780	-9.436447
O	4.182585	-1.071780	-6.325893
O	4.182585	-4.182333	-9.436447
Pd	0.000000	-5.254113	-5.254113
Pd	2.626869	-7.881170	-7.881170
Rb	-1.313435	-6.567642	-9.194698
Rb	3.940304	-3.940585	-6.567642
Rb	6.567174	-6.567642	-6.567642
Rb	1.313435	-3.940585	-9.194698
O	8.951762	-1.555277	-6.809390
O	3.698023	1.555277	-8.952950
O	6.809455	-1.555277	-8.952950
O	6.324893	1.071780	-6.325893
O	12.063194	1.555277	-6.809390
O	6.324893	4.182333	-9.436447
O	9.436324	4.182333	-6.325893
O	9.436324	1.071780	-9.436447
Pd	5.253739	0.000000	-5.254113
Pd	7.880608	-2.627057	-7.881170
Rb	3.940304	-1.313528	-9.194698
Rb	9.194043	1.313528	-6.567642
Rb	11.820913	-1.313528	-6.567642
Rb	6.567174	1.313528	-9.194698
