40

F	0.000000	2.149217	2.149217
F	2.149217	0.000000	2.149217
F	2.149217	2.149217	0.000000
O	0.000000	0.000000	0.000000
Sn	2.149217	2.149217	2.149217
F	0.000000	2.149217	6.447650
F	2.149217	0.000000	6.447650
F	2.149217	2.149217	4.298433
O	0.000000	0.000000	4.298433
Sn	2.149217	2.149217	6.447650
F	0.000000	6.447650	2.149217
F	2.149217	4.298433	2.149217
F	2.149217	6.447650	0.000000
O	0.000000	4.298433	0.000000
Sn	2.149217	6.447650	2.149217
F	0.000000	6.447650	6.447650
F	2.149217	4.298433	6.447650
F	2.149217	6.447650	4.298433
O	0.000000	4.298433	4.298433
Sn	2.149217	6.447650	6.447650
F	4.298433	2.149217	2.149217
F	6.447650	0.000000	2.149217
F	6.447650	2.149217	0.000000
O	4.298433	0.000000	0.000000
Sn	6.447650	2.149217	2.149217
F	4.298433	2.149217	6.447650
F	6.447650	0.000000	6.447650
F	6.447650	2.149217	4.298433
O	4.298433	0.000000	4.298433
Sn	6.447650	2.149217	6.447650
F	4.298433	6.447650	2.149217
F	6.447650	4.298433	2.149217
F	6.447650	6.447650	0.000000
O	4.298433	4.298433	0.000000
Sn	6.447650	6.447650	2.149217
F	4.298433	6.447650	6.447650
F	6.447650	4.298433	6.447650
F	6.447650	6.447650	4.298433
O	4.298433	4.298433	4.298433
Sn	6.447650	6.447650	6.447650
