40

F	0.000000	2.015652	2.015652
F	2.015652	0.000000	2.015652
F	2.015652	2.015652	0.000000
O	2.015652	2.015652	2.015652
Sn	0.000000	0.000000	0.000000
F	0.000000	2.015652	6.046956
F	2.015652	0.000000	6.046956
F	2.015652	2.015652	4.031304
O	2.015652	2.015652	6.046956
Sn	0.000000	0.000000	4.031304
F	0.000000	6.046956	2.015652
F	2.015652	4.031304	2.015652
F	2.015652	6.046956	0.000000
O	2.015652	6.046956	2.015652
Sn	0.000000	4.031304	0.000000
F	0.000000	6.046956	6.046956
F	2.015652	4.031304	6.046956
F	2.015652	6.046956	4.031304
O	2.015652	6.046956	6.046956
Sn	0.000000	4.031304	4.031304
F	4.031304	2.015652	2.015652
F	6.046956	0.000000	2.015652
F	6.046956	2.015652	0.000000
O	6.046956	2.015652	2.015652
Sn	4.031304	0.000000	0.000000
F	4.031304	2.015652	6.046956
F	6.046956	0.000000	6.046956
F	6.046956	2.015652	4.031304
O	6.046956	2.015652	6.046956
Sn	4.031304	0.000000	4.031304
F	4.031304	6.046956	2.015652
F	6.046956	4.031304	2.015652
F	6.046956	6.046956	0.000000
O	6.046956	6.046956	2.015652
Sn	4.031304	4.031304	0.000000
F	4.031304	6.046956	6.046956
F	6.046956	4.031304	6.046956
F	6.046956	6.046956	4.031304
O	6.046956	6.046956	6.046956
Sn	4.031304	4.031304	4.031304
