40

F	0.000000	2.152663	2.152663
F	2.152663	0.000000	2.152663
F	2.152663	2.152663	0.000000
O	0.000000	0.000000	0.000000
Sn	2.152663	2.152663	2.152663
F	0.000000	2.152663	6.457990
F	2.152663	0.000000	6.457990
F	2.152663	2.152663	4.305326
O	0.000000	0.000000	4.305326
Sn	2.152663	2.152663	6.457990
F	0.000000	6.457990	2.152663
F	2.152663	4.305326	2.152663
F	2.152663	6.457990	0.000000
O	0.000000	4.305326	0.000000
Sn	2.152663	6.457990	2.152663
F	0.000000	6.457990	6.457990
F	2.152663	4.305326	6.457990
F	2.152663	6.457990	4.305326
O	0.000000	4.305326	4.305326
Sn	2.152663	6.457990	6.457990
F	4.305326	2.152663	2.152663
F	6.457990	0.000000	2.152663
F	6.457990	2.152663	0.000000
O	4.305326	0.000000	0.000000
Sn	6.457990	2.152663	2.152663
F	4.305326	2.152663	6.457990
F	6.457990	0.000000	6.457990
F	6.457990	2.152663	4.305326
O	4.305326	0.000000	4.305326
Sn	6.457990	2.152663	6.457990
F	4.305326	6.457990	2.152663
F	6.457990	4.305326	2.152663
F	6.457990	6.457990	0.000000
O	4.305326	4.305326	0.000000
Sn	6.457990	6.457990	2.152663
F	4.305326	6.457990	6.457990
F	6.457990	4.305326	6.457990
F	6.457990	6.457990	4.305326
O	4.305326	4.305326	4.305326
Sn	6.457990	6.457990	6.457990
