40

In	2.063250	2.063250	2.063250
O	2.063250	2.063250	0.000000
O	0.000000	2.063250	2.063250
O	2.063250	0.000000	2.063250
Pu	0.000000	0.000000	0.000000
In	2.063250	2.063250	6.189749
O	2.063250	2.063250	4.126500
O	0.000000	2.063250	6.189749
O	2.063250	0.000000	6.189749
Pu	0.000000	0.000000	4.126500
In	2.063250	6.189749	2.063250
O	2.063250	6.189749	0.000000
O	0.000000	6.189749	2.063250
O	2.063250	4.126500	2.063250
Pu	0.000000	4.126500	0.000000
In	2.063250	6.189749	6.189749
O	2.063250	6.189749	4.126500
O	0.000000	6.189749	6.189749
O	2.063250	4.126500	6.189749
Pu	0.000000	4.126500	4.126500
In	6.189749	2.063250	2.063250
O	6.189749	2.063250	0.000000
O	4.126500	2.063250	2.063250
O	6.189749	0.000000	2.063250
Pu	4.126500	0.000000	0.000000
In	6.189749	2.063250	6.189749
O	6.189749	2.063250	4.126500
O	4.126500	2.063250	6.189749
O	6.189749	0.000000	6.189749
Pu	4.126500	0.000000	4.126500
In	6.189749	6.189749	2.063250
O	6.189749	6.189749	0.000000
O	4.126500	6.189749	2.063250
O	6.189749	4.126500	2.063250
Pu	4.126500	4.126500	0.000000
In	6.189749	6.189749	6.189749
O	6.189749	6.189749	4.126500
O	4.126500	6.189749	6.189749
O	6.189749	4.126500	6.189749
Pu	4.126500	4.126500	4.126500
