40

F	0.000000	1.915690	1.915690
F	1.915690	0.000000	1.915690
F	1.915690	1.915690	0.000000
Na	0.000000	0.000000	0.000000
O	1.915690	1.915690	1.915690
F	0.000000	1.915690	5.747070
F	1.915690	0.000000	5.747070
F	1.915690	1.915690	3.831380
Na	0.000000	0.000000	3.831380
O	1.915690	1.915690	5.747070
F	0.000000	5.747070	1.915690
F	1.915690	3.831380	1.915690
F	1.915690	5.747070	0.000000
Na	0.000000	3.831380	0.000000
O	1.915690	5.747070	1.915690
F	0.000000	5.747070	5.747070
F	1.915690	3.831380	5.747070
F	1.915690	5.747070	3.831380
Na	0.000000	3.831380	3.831380
O	1.915690	5.747070	5.747070
F	3.831380	1.915690	1.915690
F	5.747070	0.000000	1.915690
F	5.747070	1.915690	0.000000
Na	3.831380	0.000000	0.000000
O	5.747070	1.915690	1.915690
F	3.831380	1.915690	5.747070
F	5.747070	0.000000	5.747070
F	5.747070	1.915690	3.831380
Na	3.831380	0.000000	3.831380
O	5.747070	1.915690	5.747070
F	3.831380	5.747070	1.915690
F	5.747070	3.831380	1.915690
F	5.747070	5.747070	0.000000
Na	3.831380	3.831380	0.000000
O	5.747070	5.747070	1.915690
F	3.831380	5.747070	5.747070
F	5.747070	3.831380	5.747070
F	5.747070	5.747070	3.831380
Na	3.831380	3.831380	3.831380
O	5.747070	5.747070	5.747070
