40

F	0.000000	0.000000	0.000000
Mo	1.929376	1.929376	1.929376
O	0.000000	1.929376	1.929376
O	1.929376	0.000000	1.929376
O	1.929376	1.929376	0.000000
F	0.000000	0.000000	3.858753
Mo	1.929376	1.929376	5.788129
O	0.000000	1.929376	5.788129
O	1.929376	0.000000	5.788129
O	1.929376	1.929376	3.858753
F	0.000000	3.858753	0.000000
Mo	1.929376	5.788129	1.929376
O	0.000000	5.788129	1.929376
O	1.929376	3.858753	1.929376
O	1.929376	5.788129	0.000000
F	0.000000	3.858753	3.858753
Mo	1.929376	5.788129	5.788129
O	0.000000	5.788129	5.788129
O	1.929376	3.858753	5.788129
O	1.929376	5.788129	3.858753
F	3.858753	0.000000	0.000000
Mo	5.788129	1.929376	1.929376
O	3.858753	1.929376	1.929376
O	5.788129	0.000000	1.929376
O	5.788129	1.929376	0.000000
F	3.858753	0.000000	3.858753
Mo	5.788129	1.929376	5.788129
O	3.858753	1.929376	5.788129
O	5.788129	0.000000	5.788129
O	5.788129	1.929376	3.858753
F	3.858753	3.858753	0.000000
Mo	5.788129	5.788129	1.929376
O	3.858753	5.788129	1.929376
O	5.788129	3.858753	1.929376
O	5.788129	5.788129	0.000000
F	3.858753	3.858753	3.858753
Mo	5.788129	5.788129	5.788129
O	3.858753	5.788129	5.788129
O	5.788129	3.858753	5.788129
O	5.788129	5.788129	3.858753
