112

Li	0.000000	0.000000	0.000000
Li	2.084547	-2.083289	-2.083289
O	3.123502	-1.046325	-1.046325
O	-1.045593	1.046325	-3.120252
O	1.045593	-1.046325	-3.120252
O	1.038955	1.036963	-1.036963
O	5.214687	1.046325	-1.046325
O	1.038955	3.129614	-3.129614
O	3.130140	3.129614	-1.036963
O	3.130140	1.036963	-3.129614
Re	-1.042274	-1.041644	-3.124933
Re	3.126821	1.041644	-1.041644
Re	5.211368	-1.041644	-1.041644
Re	1.042274	1.041644	-3.124933
Li	4.169094	4.166577	0.000000
Li	6.253641	2.083289	-2.083289
O	7.292596	3.120252	-1.046325
O	3.123502	5.212903	-3.120252
O	5.214687	3.120252	-3.120252
O	5.208049	5.203540	-1.036963
O	9.383781	5.212903	-1.046325
O	5.208049	7.296191	-3.129614
O	7.299234	7.296191	-1.036963
O	7.299234	5.203540	-3.129614
Re	3.126821	3.124933	-3.124933
Re	7.295915	5.208222	-1.041644
Re	9.380462	3.124933	-1.041644
Re	5.211368	5.208222	-3.124933
Li	-4.169094	0.000000	-4.166577
Li	-2.084547	-2.083289	-6.249866
O	-1.045593	-1.046325	-5.212903
O	-5.214687	1.046325	-7.286829
O	-3.123502	-1.046325	-7.286829
O	-3.130140	1.036963	-5.203540
O	1.045593	1.046325	-5.212903
O	-3.130140	3.129614	-7.296191
O	-1.038955	3.129614	-5.203540
O	-1.038955	1.036963	-7.296191
Re	-5.211368	-1.041644	-7.291510
Re	-1.042274	1.041644	-5.208222
Re	1.042274	-1.041644	-5.208222
Re	-3.126821	1.041644	-7.291510
Li	0.000000	4.166577	-4.166577
Li	2.084547	2.083289	-6.249866
O	3.123502	3.120252	-5.212903
O	-1.045593	5.212903	-7.286829
O	1.045593	3.120252	-7.286829
O	1.038955	5.203540	-5.203540
O	5.214687	5.212903	-5.212903
O	1.038955	7.296191	-7.296191
O	3.130140	7.296191	-5.203540
O	3.130140	5.203540	-7.296191
Re	-1.042274	3.124933	-7.291510
Re	3.126821	5.208222	-5.208222
Re	5.211368	3.124933	-5.208222
Re	1.042274	5.208222	-7.291510
Li	4.169094	-4.166577	0.000000
Li	6.253641	-6.249866	-2.083289
O	7.292596	-5.212903	-1.046325
O	3.123502	-3.120252	-3.120252
O	5.214687	-5.212903	-3.120252
O	5.208049	-3.129614	-1.036963
O	9.383781	-3.120252	-1.046325
O	5.208049	-1.036963	-3.129614
O	7.299234	-1.036963	-1.036963
O	7.299234	-3.129614	-3.129614
Re	3.126821	-5.208222	-3.124933
Re	7.295915	-3.124933	-1.041644
Re	9.380462	-5.208222	-1.041644
Re	5.211368	-3.124933	-3.124933
Li	8.338188	0.000000	0.000000
Li	10.422735	-2.083289	-2.083289
O	11.461690	-1.046325	-1.046325
O	7.292596	1.046325	-3.120252
O	9.383781	-1.046325	-3.120252
O	9.377143	1.036963	-1.036963
O	13.552875	1.046325	-1.046325
O	9.377143	3.129614	-3.129614
O	11.468328	3.129614	-1.036963
O	11.468328	1.036963	-3.129614
Re	7.295915	-1.041644	-3.124933
Re	11.465009	1.041644	-1.041644
Re	13.549556	-1.041644	-1.041644
Re	9.380462	1.041644	-3.124933
Li	0.000000	-4.166577	-4.166577
Li	2.084547	-6.249866	-6.249866
O	3.123502	-5.212903	-5.212903
O	-1.045593	-3.120252	-7.286829
O	1.045593	-5.212903	-7.286829
O	1.038955	-3.129614	-5.203540
O	5.214687	-3.120252	-5.212903
O	1.038955	-1.036963	-7.296191
O	3.130140	-1.036963	-5.203540
O	3.130140	-3.129614	-7.296191
Re	-1.042274	-5.208222	-7.291510
Re	3.126821	-3.124933	-5.208222
Re	5.211368	-5.208222	-5.208222
Re	1.042274	-3.124933	-7.291510
Li	4.169094	0.000000	-4.166577
Li	6.253641	-2.083289	-6.249866
O	7.292596	-1.046325	-5.212903
O	3.123502	1.046325	-7.286829
O	5.214687	-1.046325	-7.286829
O	5.208049	1.036963	-5.203540
O	9.383781	1.046325	-5.212903
O	5.208049	3.129614	-7.296191
O	7.299234	3.129614	-5.203540
O	7.299234	1.036963	-7.296191
Re	3.126821	-1.041644	-7.291510
Re	7.295915	1.041644	-5.208222
Re	9.380462	-1.041644	-5.208222
Re	5.211368	1.041644	-7.291510
