40

N	1.800101	1.800101	1.800101
O	0.000000	1.800101	1.800101
O	1.800101	0.000000	1.800101
O	1.800101	1.800101	0.000000
Rh	0.000000	0.000000	0.000000
N	1.800101	1.800101	5.400303
O	0.000000	1.800101	5.400303
O	1.800101	0.000000	5.400303
O	1.800101	1.800101	3.600202
Rh	0.000000	0.000000	3.600202
N	1.800101	5.400303	1.800101
O	0.000000	5.400303	1.800101
O	1.800101	3.600202	1.800101
O	1.800101	5.400303	0.000000
Rh	0.000000	3.600202	0.000000
N	1.800101	5.400303	5.400303
O	0.000000	5.400303	5.400303
O	1.800101	3.600202	5.400303
O	1.800101	5.400303	3.600202
Rh	0.000000	3.600202	3.600202
N	5.400303	1.800101	1.800101
O	3.600202	1.800101	1.800101
O	5.400303	0.000000	1.800101
O	5.400303	1.800101	0.000000
Rh	3.600202	0.000000	0.000000
N	5.400303	1.800101	5.400303
O	3.600202	1.800101	5.400303
O	5.400303	0.000000	5.400303
O	5.400303	1.800101	3.600202
Rh	3.600202	0.000000	3.600202
N	5.400303	5.400303	1.800101
O	3.600202	5.400303	1.800101
O	5.400303	3.600202	1.800101
O	5.400303	5.400303	0.000000
Rh	3.600202	3.600202	0.000000
N	5.400303	5.400303	5.400303
O	3.600202	5.400303	5.400303
O	5.400303	3.600202	5.400303
O	5.400303	5.400303	3.600202
Rh	3.600202	3.600202	3.600202
