112

Cs	0.000000	0.000000	0.000000
Cs	2.480910	-2.481593	-2.481593
Lu	-1.240460	-1.240791	-3.722384
Lu	3.721369	1.240791	-1.240791
Lu	1.240460	1.240791	-3.722384
Lu	6.202279	-1.240791	-1.240791
O	3.994678	-0.966832	-0.966832
O	-0.967141	0.966832	-3.996353
O	0.967141	-0.966832	-3.996353
O	1.513769	1.514761	-1.514761
O	5.928960	0.966832	-0.966832
O	1.513769	3.448425	-3.448425
O	3.448051	3.448425	-1.514761
O	3.448051	1.514761	-3.448425
Cs	4.961821	4.963183	0.000000
Cs	7.442731	2.481591	-2.481593
Lu	3.721361	3.722392	-3.722384
Lu	8.683191	6.203975	-1.240791
Lu	6.202281	6.203975	-3.722384
Lu	11.164100	3.722392	-1.240791
O	8.956499	3.996351	-0.966832
O	3.994680	5.930016	-3.996353
O	5.928962	3.996351	-3.996353
O	6.475590	6.477944	-1.514761
O	10.890781	5.930016	-0.966832
O	6.475590	8.411608	-3.448425
O	8.409872	8.411608	-1.514761
O	8.409872	6.477944	-3.448425
Cs	-4.961821	0.000000	-4.963183
Cs	-2.480912	-2.481593	-7.444776
Lu	-6.202281	-1.240791	-8.685568
Lu	-1.240452	1.240791	-6.203975
Lu	-3.721361	1.240791	-8.685568
Lu	1.240458	-1.240791	-6.203975
O	-0.967143	-0.966832	-5.930016
O	-5.928962	0.966832	-8.959537
O	-3.994680	-0.966832	-8.959537
O	-3.448053	1.514761	-6.477944
O	0.967139	0.966832	-5.930016
O	-3.448053	3.448425	-8.411608
O	-1.513771	3.448425	-6.477944
O	-1.513771	1.514761	-8.411608
Cs	0.000000	4.963183	-4.963183
Cs	2.480910	2.481591	-7.444776
Lu	-1.240460	3.722392	-8.685568
Lu	3.721369	6.203975	-6.203975
Lu	1.240460	6.203975	-8.685568
Lu	6.202279	3.722392	-6.203975
O	3.994678	3.996351	-5.930016
O	-0.967141	5.930016	-8.959537
O	0.967141	3.996351	-8.959537
O	1.513769	6.477944	-6.477944
O	5.928960	5.930016	-5.930016
O	1.513769	8.411608	-8.411608
O	3.448051	8.411608	-6.477944
O	3.448051	6.477944	-8.411608
Cs	4.961821	-4.963183	0.000000
Cs	7.442731	-7.444776	-2.481593
Lu	3.721361	-6.203975	-3.722384
Lu	8.683191	-3.722392	-1.240791
Lu	6.202281	-3.722392	-3.722384
Lu	11.164100	-6.203975	-1.240791
O	8.956499	-5.930016	-0.966832
O	3.994680	-3.996351	-3.996353
O	5.928962	-5.930016	-3.996353
O	6.475590	-3.448423	-1.514761
O	10.890781	-3.996351	-0.966832
O	6.475590	-1.514759	-3.448425
O	8.409872	-1.514759	-1.514761
O	8.409872	-3.448423	-3.448425
Cs	9.923642	0.000000	0.000000
Cs	12.404552	-2.481593	-2.481593
Lu	8.683183	-1.240791	-3.722384
Lu	13.645012	1.240791	-1.240791
Lu	11.164102	1.240791	-3.722384
Lu	16.125921	-1.240791	-1.240791
O	13.918321	-0.966832	-0.966832
O	8.956501	0.966832	-3.996353
O	10.890783	-0.966832	-3.996353
O	11.437411	1.514761	-1.514761
O	15.852603	0.966832	-0.966832
O	11.437411	3.448425	-3.448425
O	13.371693	3.448425	-1.514761
O	13.371693	1.514761	-3.448425
Cs	0.000000	-4.963183	-4.963183
Cs	2.480910	-7.444776	-7.444776
Lu	-1.240460	-6.203975	-8.685568
Lu	3.721369	-3.722392	-6.203975
Lu	1.240460	-3.722392	-8.685568
Lu	6.202279	-6.203975	-6.203975
O	3.994678	-5.930016	-5.930016
O	-0.967141	-3.996351	-8.959537
O	0.967141	-5.930016	-8.959537
O	1.513769	-3.448423	-6.477944
O	5.928960	-3.996351	-5.930016
O	1.513769	-1.514759	-8.411608
O	3.448051	-1.514759	-6.477944
O	3.448051	-3.448423	-8.411608
Cs	4.961821	0.000000	-4.963183
Cs	7.442731	-2.481593	-7.444776
Lu	3.721361	-1.240791	-8.685568
Lu	8.683191	1.240791	-6.203975
Lu	6.202281	1.240791	-8.685568
Lu	11.164100	-1.240791	-6.203975
O	8.956499	-0.966832	-5.930016
O	3.994680	0.966832	-8.959537
O	5.928962	-0.966832	-8.959537
O	6.475590	1.514761	-6.477944
O	10.890781	0.966832	-5.930016
O	6.475590	3.448425	-8.411608
O	8.409872	3.448425	-6.477944
O	8.409872	1.514761	-8.411608
