40

Ba	2.298687	2.298687	2.298687
Be	0.000000	0.000000	0.000000
O	0.000000	2.298687	2.298687
O	2.298687	0.000000	2.298687
O	2.298687	2.298687	0.000000
Ba	2.298687	2.298687	6.896060
Be	0.000000	0.000000	4.597373
O	0.000000	2.298687	6.896060
O	2.298687	0.000000	6.896060
O	2.298687	2.298687	4.597373
Ba	2.298687	6.896060	2.298687
Be	0.000000	4.597373	0.000000
O	0.000000	6.896060	2.298687
O	2.298687	4.597373	2.298687
O	2.298687	6.896060	0.000000
Ba	2.298687	6.896060	6.896060
Be	0.000000	4.597373	4.597373
O	0.000000	6.896060	6.896060
O	2.298687	4.597373	6.896060
O	2.298687	6.896060	4.597373
Ba	6.896060	2.298687	2.298687
Be	4.597373	0.000000	0.000000
O	4.597373	2.298687	2.298687
O	6.896060	0.000000	2.298687
O	6.896060	2.298687	0.000000
Ba	6.896060	2.298687	6.896060
Be	4.597373	0.000000	4.597373
O	4.597373	2.298687	6.896060
O	6.896060	0.000000	6.896060
O	6.896060	2.298687	4.597373
Ba	6.896060	6.896060	2.298687
Be	4.597373	4.597373	0.000000
O	4.597373	6.896060	2.298687
O	6.896060	4.597373	2.298687
O	6.896060	6.896060	0.000000
Ba	6.896060	6.896060	6.896060
Be	4.597373	4.597373	4.597373
O	4.597373	6.896060	6.896060
O	6.896060	4.597373	6.896060
O	6.896060	6.896060	4.597373
