40

Ac	2.306751	2.306751	2.306751
As	0.000000	0.000000	0.000000
O	2.306751	2.306751	0.000000
O	2.306751	0.000000	2.306751
O	0.000000	2.306751	2.306751
Ac	2.306751	2.306751	6.920252
As	0.000000	0.000000	4.613502
O	2.306751	2.306751	4.613502
O	2.306751	0.000000	6.920252
O	0.000000	2.306751	6.920252
Ac	2.306751	6.920252	2.306751
As	0.000000	4.613502	0.000000
O	2.306751	6.920252	0.000000
O	2.306751	4.613502	2.306751
O	0.000000	6.920252	2.306751
Ac	2.306751	6.920252	6.920252
As	0.000000	4.613502	4.613502
O	2.306751	6.920252	4.613502
O	2.306751	4.613502	6.920252
O	0.000000	6.920252	6.920252
Ac	6.920252	2.306751	2.306751
As	4.613502	0.000000	0.000000
O	6.920252	2.306751	0.000000
O	6.920252	0.000000	2.306751
O	4.613502	2.306751	2.306751
Ac	6.920252	2.306751	6.920252
As	4.613502	0.000000	4.613502
O	6.920252	2.306751	4.613502
O	6.920252	0.000000	6.920252
O	4.613502	2.306751	6.920252
Ac	6.920252	6.920252	2.306751
As	4.613502	4.613502	0.000000
O	6.920252	6.920252	0.000000
O	6.920252	4.613502	2.306751
O	4.613502	6.920252	2.306751
Ac	6.920252	6.920252	6.920252
As	4.613502	4.613502	4.613502
O	6.920252	6.920252	4.613502
O	6.920252	4.613502	6.920252
O	4.613502	6.920252	6.920252
