40

Bi	2.112883	2.112883	2.112883
K	0.000000	0.000000	0.000000
O	2.112883	2.112883	0.000000
O	2.112883	0.000000	2.112883
O	0.000000	2.112883	2.112883
Bi	2.112883	2.112883	6.338651
K	0.000000	0.000000	4.225767
O	2.112883	2.112883	4.225767
O	2.112883	0.000000	6.338651
O	0.000000	2.112883	6.338651
Bi	2.112883	6.338651	2.112883
K	0.000000	4.225767	0.000000
O	2.112883	6.338651	0.000000
O	2.112883	4.225767	2.112883
O	0.000000	6.338651	2.112883
Bi	2.112883	6.338651	6.338651
K	0.000000	4.225767	4.225767
O	2.112883	6.338651	4.225767
O	2.112883	4.225767	6.338651
O	0.000000	6.338651	6.338651
Bi	6.338651	2.112883	2.112883
K	4.225767	0.000000	0.000000
O	6.338651	2.112883	0.000000
O	6.338651	0.000000	2.112883
O	4.225767	2.112883	2.112883
Bi	6.338651	2.112883	6.338651
K	4.225767	0.000000	4.225767
O	6.338651	2.112883	4.225767
O	6.338651	0.000000	6.338651
O	4.225767	2.112883	6.338651
Bi	6.338651	6.338651	2.112883
K	4.225767	4.225767	0.000000
O	6.338651	6.338651	0.000000
O	6.338651	4.225767	2.112883
O	4.225767	6.338651	2.112883
Bi	6.338651	6.338651	6.338651
K	4.225767	4.225767	4.225767
O	6.338651	6.338651	4.225767
O	6.338651	4.225767	6.338651
O	4.225767	6.338651	6.338651
