40

Bi	0.000000	0.000000	0.000000
K	2.203326	2.203326	2.203326
O	0.000000	2.203326	2.203326
O	2.203326	0.000000	2.203326
O	2.203326	2.203326	0.000000
Bi	0.000000	0.000000	4.406653
K	2.203326	2.203326	6.609979
O	0.000000	2.203326	6.609979
O	2.203326	0.000000	6.609979
O	2.203326	2.203326	4.406653
Bi	0.000000	4.406653	0.000000
K	2.203326	6.609979	2.203326
O	0.000000	6.609979	2.203326
O	2.203326	4.406653	2.203326
O	2.203326	6.609979	0.000000
Bi	0.000000	4.406653	4.406653
K	2.203326	6.609979	6.609979
O	0.000000	6.609979	6.609979
O	2.203326	4.406653	6.609979
O	2.203326	6.609979	4.406653
Bi	4.406653	0.000000	0.000000
K	6.609979	2.203326	2.203326
O	4.406653	2.203326	2.203326
O	6.609979	0.000000	2.203326
O	6.609979	2.203326	0.000000
Bi	4.406653	0.000000	4.406653
K	6.609979	2.203326	6.609979
O	4.406653	2.203326	6.609979
O	6.609979	0.000000	6.609979
O	6.609979	2.203326	4.406653
Bi	4.406653	4.406653	0.000000
K	6.609979	6.609979	2.203326
O	4.406653	6.609979	2.203326
O	6.609979	4.406653	2.203326
O	6.609979	6.609979	0.000000
Bi	4.406653	4.406653	4.406653
K	6.609979	6.609979	6.609979
O	4.406653	6.609979	6.609979
O	6.609979	4.406653	6.609979
O	6.609979	6.609979	4.406653
