40

Cu	1.897140	1.897140	1.897140
O	1.897140	1.897140	0.000000
O	0.000000	1.897140	1.897140
O	1.897140	0.000000	1.897140
Tl	0.000000	0.000000	0.000000
Cu	1.897140	1.897140	5.691411
O	1.897140	1.897140	3.794272
O	0.000000	1.897140	5.691411
O	1.897140	0.000000	5.691411
Tl	0.000000	0.000000	3.794272
Cu	1.897140	5.691411	1.897140
O	1.897140	5.691411	0.000000
O	0.000000	5.691411	1.897140
O	1.897140	3.794272	1.897140
Tl	0.000000	3.794272	0.000000
Cu	1.897140	5.691411	5.691411
O	1.897140	5.691411	3.794272
O	0.000000	5.691411	5.691411
O	1.897140	3.794272	5.691411
Tl	0.000000	3.794272	3.794272
Cu	5.691411	1.897140	1.897140
O	5.691411	1.897140	0.000000
O	3.794272	1.897140	1.897140
O	5.691411	0.000000	1.897140
Tl	3.794272	0.000000	0.000000
Cu	5.691411	1.897140	5.691411
O	5.691411	1.897140	3.794272
O	3.794272	1.897140	5.691411
O	5.691411	0.000000	5.691411
Tl	3.794272	0.000000	3.794272
Cu	5.691411	5.691411	1.897140
O	5.691411	5.691411	0.000000
O	3.794272	5.691411	1.897140
O	5.691411	3.794272	1.897140
Tl	3.794272	3.794272	0.000000
Cu	5.691411	5.691411	5.691411
O	5.691411	5.691411	3.794272
O	3.794272	5.691411	5.691411
O	5.691411	3.794272	5.691411
Tl	3.794272	3.794272	3.794272
