40

N	1.750000	1.750000	1.750000
O	0.000000	1.750000	1.750000
O	1.750000	0.000000	1.750000
O	1.750000	1.750000	0.000000
Ti	0.000000	0.000000	0.000000
N	1.750000	1.750000	5.250001
O	0.000000	1.750000	5.250001
O	1.750000	0.000000	5.250001
O	1.750000	1.750000	3.500001
Ti	0.000000	0.000000	3.500001
N	1.750000	5.250001	1.750000
O	0.000000	5.250001	1.750000
O	1.750000	3.500001	1.750000
O	1.750000	5.250001	0.000000
Ti	0.000000	3.500001	0.000000
N	1.750000	5.250001	5.250001
O	0.000000	5.250001	5.250001
O	1.750000	3.500001	5.250001
O	1.750000	5.250001	3.500001
Ti	0.000000	3.500001	3.500001
N	5.250001	1.750000	1.750000
O	3.500001	1.750000	1.750000
O	5.250001	0.000000	1.750000
O	5.250001	1.750000	0.000000
Ti	3.500001	0.000000	0.000000
N	5.250001	1.750000	5.250001
O	3.500001	1.750000	5.250001
O	5.250001	0.000000	5.250001
O	5.250001	1.750000	3.500001
Ti	3.500001	0.000000	3.500001
N	5.250001	5.250001	1.750000
O	3.500001	5.250001	1.750000
O	5.250001	3.500001	1.750000
O	5.250001	5.250001	0.000000
Ti	3.500001	3.500001	0.000000
N	5.250001	5.250001	5.250001
O	3.500001	5.250001	5.250001
O	5.250001	3.500001	5.250001
O	5.250001	5.250001	3.500001
Ti	3.500001	3.500001	3.500001
