40

Au	2.039403	2.039403	2.039403
O	2.039403	2.039403	0.000000
O	0.000000	2.039403	2.039403
O	2.039403	0.000000	2.039403
Tm	0.000000	0.000000	0.000000
Au	2.039403	2.039403	6.118200
O	2.039403	2.039403	4.078797
O	0.000000	2.039403	6.118200
O	2.039403	0.000000	6.118200
Tm	0.000000	0.000000	4.078797
Au	2.039403	6.118200	2.039403
O	2.039403	6.118200	0.000000
O	0.000000	6.118200	2.039403
O	2.039403	4.078797	2.039403
Tm	0.000000	4.078797	0.000000
Au	2.039403	6.118200	6.118200
O	2.039403	6.118200	4.078797
O	0.000000	6.118200	6.118200
O	2.039403	4.078797	6.118200
Tm	0.000000	4.078797	4.078797
Au	6.118200	2.039403	2.039403
O	6.118200	2.039403	0.000000
O	4.078797	2.039403	2.039403
O	6.118200	0.000000	2.039403
Tm	4.078797	0.000000	0.000000
Au	6.118200	2.039403	6.118200
O	6.118200	2.039403	4.078797
O	4.078797	2.039403	6.118200
O	6.118200	0.000000	6.118200
Tm	4.078797	0.000000	4.078797
Au	6.118200	6.118200	2.039403
O	6.118200	6.118200	0.000000
O	4.078797	6.118200	2.039403
O	6.118200	4.078797	2.039403
Tm	4.078797	4.078797	0.000000
Au	6.118200	6.118200	6.118200
O	6.118200	6.118200	4.078797
O	4.078797	6.118200	6.118200
O	6.118200	4.078797	6.118200
Tm	4.078797	4.078797	4.078797
