40

Ba	0.000000	0.000000	0.000000
O	2.061711	2.061711	0.000000
O	2.061711	0.000000	2.061711
O	0.000000	2.061711	2.061711
Pd	2.061711	2.061711	2.061711
Ba	0.000000	0.000000	4.123421
O	2.061711	2.061711	4.123421
O	2.061711	0.000000	6.185132
O	0.000000	2.061711	6.185132
Pd	2.061711	2.061711	6.185132
Ba	0.000000	4.123421	0.000000
O	2.061711	6.185132	0.000000
O	2.061711	4.123421	2.061711
O	0.000000	6.185132	2.061711
Pd	2.061711	6.185132	2.061711
Ba	0.000000	4.123421	4.123421
O	2.061711	6.185132	4.123421
O	2.061711	4.123421	6.185132
O	0.000000	6.185132	6.185132
Pd	2.061711	6.185132	6.185132
Ba	4.123421	0.000000	0.000000
O	6.185132	2.061711	0.000000
O	6.185132	0.000000	2.061711
O	4.123421	2.061711	2.061711
Pd	6.185132	2.061711	2.061711
Ba	4.123421	0.000000	4.123421
O	6.185132	2.061711	4.123421
O	6.185132	0.000000	6.185132
O	4.123421	2.061711	6.185132
Pd	6.185132	2.061711	6.185132
Ba	4.123421	4.123421	0.000000
O	6.185132	6.185132	0.000000
O	6.185132	4.123421	2.061711
O	4.123421	6.185132	2.061711
Pd	6.185132	6.185132	2.061711
Ba	4.123421	4.123421	4.123421
O	6.185132	6.185132	4.123421
O	6.185132	4.123421	6.185132
O	4.123421	6.185132	6.185132
Pd	6.185132	6.185132	6.185132
