40

Cr	1.912259	1.912259	1.912259
Lu	0.000000	0.000000	0.000000
O	1.912259	1.912259	0.000000
O	1.912259	0.000000	1.912259
O	0.000000	1.912259	1.912259
Cr	1.912259	1.912259	5.736777
Lu	0.000000	0.000000	3.824518
O	1.912259	1.912259	3.824518
O	1.912259	0.000000	5.736777
O	0.000000	1.912259	5.736777
Cr	1.912259	5.736777	1.912259
Lu	0.000000	3.824518	0.000000
O	1.912259	5.736777	0.000000
O	1.912259	3.824518	1.912259
O	0.000000	5.736777	1.912259
Cr	1.912259	5.736777	5.736777
Lu	0.000000	3.824518	3.824518
O	1.912259	5.736777	3.824518
O	1.912259	3.824518	5.736777
O	0.000000	5.736777	5.736777
Cr	5.736777	1.912259	1.912259
Lu	3.824518	0.000000	0.000000
O	5.736777	1.912259	0.000000
O	5.736777	0.000000	1.912259
O	3.824518	1.912259	1.912259
Cr	5.736777	1.912259	5.736777
Lu	3.824518	0.000000	3.824518
O	5.736777	1.912259	3.824518
O	5.736777	0.000000	5.736777
O	3.824518	1.912259	5.736777
Cr	5.736777	5.736777	1.912259
Lu	3.824518	3.824518	0.000000
O	5.736777	5.736777	0.000000
O	5.736777	3.824518	1.912259
O	3.824518	5.736777	1.912259
Cr	5.736777	5.736777	5.736777
Lu	3.824518	3.824518	3.824518
O	5.736777	5.736777	3.824518
O	5.736777	3.824518	5.736777
O	3.824518	5.736777	5.736777
