40

Ca	2.063429	2.063429	2.063429
Hf	0.000000	0.000000	0.000000
O	0.000000	2.063429	2.063429
O	2.063429	0.000000	2.063429
O	2.063429	2.063429	0.000000
Ca	2.063429	2.063429	6.190287
Hf	0.000000	0.000000	4.126858
O	0.000000	2.063429	6.190287
O	2.063429	0.000000	6.190287
O	2.063429	2.063429	4.126858
Ca	2.063429	6.190287	2.063429
Hf	0.000000	4.126858	0.000000
O	0.000000	6.190287	2.063429
O	2.063429	4.126858	2.063429
O	2.063429	6.190287	0.000000
Ca	2.063429	6.190287	6.190287
Hf	0.000000	4.126858	4.126858
O	0.000000	6.190287	6.190287
O	2.063429	4.126858	6.190287
O	2.063429	6.190287	4.126858
Ca	6.190287	2.063429	2.063429
Hf	4.126858	0.000000	0.000000
O	4.126858	2.063429	2.063429
O	6.190287	0.000000	2.063429
O	6.190287	2.063429	0.000000
Ca	6.190287	2.063429	6.190287
Hf	4.126858	0.000000	4.126858
O	4.126858	2.063429	6.190287
O	6.190287	0.000000	6.190287
O	6.190287	2.063429	4.126858
Ca	6.190287	6.190287	2.063429
Hf	4.126858	4.126858	0.000000
O	4.126858	6.190287	2.063429
O	6.190287	4.126858	2.063429
O	6.190287	6.190287	0.000000
Ca	6.190287	6.190287	6.190287
Hf	4.126858	4.126858	4.126858
O	4.126858	6.190287	6.190287
O	6.190287	4.126858	6.190287
O	6.190287	6.190287	4.126858
