112

O	3.960443	-0.987481	-0.987481
O	-0.987778	0.987481	-3.961970
O	0.987778	-0.987481	-3.961970
O	1.486333	1.487245	-1.487245
O	5.936009	0.987481	-0.987481
O	1.486333	3.462206	-3.462206
O	3.461898	3.462206	-1.487245
O	3.461898	1.487245	-3.462206
Rb	0.000000	0.000000	0.000000
Rb	2.474111	-2.474725	-2.474725
Tm	-1.237055	-1.237358	-3.712083
Tm	3.711166	1.237358	-1.237358
Tm	1.237055	1.237358	-3.712083
Tm	6.185286	-1.237358	-1.237358
O	8.908670	3.961970	-0.987481
O	3.960449	5.936931	-3.961970
O	5.936004	3.961970	-3.961970
O	6.434559	6.436695	-1.487245
O	10.884235	5.936931	-0.987481
O	6.434559	8.411656	-3.462206
O	8.410125	8.411656	-1.487245
O	8.410125	6.436695	-3.462206
Rb	4.948226	4.949450	0.000000
Rb	7.422337	2.474725	-2.474725
Tm	3.711171	3.712093	-3.712083
Tm	8.659392	6.186808	-1.237358
Tm	6.185282	6.186808	-3.712083
Tm	11.133513	3.712093	-1.237358
O	-0.987783	-0.987481	-5.936931
O	-5.936004	0.987481	-8.911420
O	-3.960449	-0.987481	-8.911420
O	-3.461894	1.487245	-6.436695
O	0.987782	0.987481	-5.936931
O	-3.461894	3.462206	-8.411656
O	-1.486328	3.462206	-6.436695
O	-1.486328	1.487245	-8.411656
Rb	-4.948226	0.000000	-4.949450
Rb	-2.474116	-2.474725	-7.424176
Tm	-6.185282	-1.237358	-8.661533
Tm	-1.237061	1.237358	-6.186808
Tm	-3.711171	1.237358	-8.661533
Tm	1.237060	-1.237358	-6.186808
O	3.960443	3.961970	-5.936931
O	-0.987778	5.936931	-8.911420
O	0.987778	3.961970	-8.911420
O	1.486333	6.436695	-6.436695
O	5.936009	5.936931	-5.936931
O	1.486333	8.411656	-8.411656
O	3.461898	8.411656	-6.436695
O	3.461898	6.436695	-8.411656
Rb	0.000000	4.949450	-4.949450
Rb	2.474111	2.474725	-7.424176
Tm	-1.237055	3.712093	-8.661533
Tm	3.711166	6.186808	-6.186808
Tm	1.237055	6.186808	-8.661533
Tm	6.185286	3.712093	-6.186808
O	8.908670	-5.936931	-0.987481
O	3.960449	-3.961970	-3.961970
O	5.936004	-5.936931	-3.961970
O	6.434559	-3.462206	-1.487245
O	10.884235	-3.961970	-0.987481
O	6.434559	-1.487244	-3.462206
O	8.410125	-1.487244	-1.487245
O	8.410125	-3.462206	-3.462206
Rb	4.948226	-4.949450	0.000000
Rb	7.422337	-7.424176	-2.474725
Tm	3.711171	-6.186808	-3.712083
Tm	8.659392	-3.712093	-1.237358
Tm	6.185282	-3.712093	-3.712083
Tm	11.133513	-6.186808	-1.237358
O	13.856896	-0.987481	-0.987481
O	8.908675	0.987481	-3.961970
O	10.884231	-0.987481	-3.961970
O	11.382785	1.487245	-1.487245
O	15.832461	0.987481	-0.987481
O	11.382785	3.462206	-3.462206
O	13.358351	3.462206	-1.487245
O	13.358351	1.487245	-3.462206
Rb	9.896453	0.000000	0.000000
Rb	12.370563	-2.474725	-2.474725
Tm	8.659398	-1.237358	-3.712083
Tm	13.607619	1.237358	-1.237358
Tm	11.133508	1.237358	-3.712083
Tm	16.081739	-1.237358	-1.237358
O	3.960443	-5.936931	-5.936931
O	-0.987778	-3.961970	-8.911420
O	0.987778	-5.936931	-8.911420
O	1.486333	-3.462206	-6.436695
O	5.936009	-3.961970	-5.936931
O	1.486333	-1.487244	-8.411656
O	3.461898	-1.487244	-6.436695
O	3.461898	-3.462206	-8.411656
Rb	0.000000	-4.949450	-4.949450
Rb	2.474111	-7.424176	-7.424176
Tm	-1.237055	-6.186808	-8.661533
Tm	3.711166	-3.712093	-6.186808
Tm	1.237055	-3.712093	-8.661533
Tm	6.185286	-6.186808	-6.186808
O	8.908670	-0.987481	-5.936931
O	3.960449	0.987481	-8.911420
O	5.936004	-0.987481	-8.911420
O	6.434559	1.487245	-6.436695
O	10.884235	0.987481	-5.936931
O	6.434559	3.462206	-8.411656
O	8.410125	3.462206	-6.436695
O	8.410125	1.487245	-8.411656
Rb	4.948226	0.000000	-4.949450
Rb	7.422337	-2.474725	-7.424176
Tm	3.711171	-1.237358	-8.661533
Tm	8.659392	1.237358	-6.186808
Tm	6.185282	1.237358	-8.661533
Tm	11.133513	-1.237358	-6.186808
