40

B	0.000000	0.000000	0.000000
O	2.029091	2.029091	0.000000
O	2.029091	0.000000	2.029091
O	0.000000	2.029091	2.029091
Sc	2.029091	2.029091	2.029091
B	0.000000	0.000000	4.058176
O	2.029091	2.029091	4.058176
O	2.029091	0.000000	6.087267
O	0.000000	2.029091	6.087267
Sc	2.029091	2.029091	6.087267
B	0.000000	4.058176	0.000000
O	2.029091	6.087267	0.000000
O	2.029091	4.058176	2.029091
O	0.000000	6.087267	2.029091
Sc	2.029091	6.087267	2.029091
B	0.000000	4.058176	4.058176
O	2.029091	6.087267	4.058176
O	2.029091	4.058176	6.087267
O	0.000000	6.087267	6.087267
Sc	2.029091	6.087267	6.087267
B	4.058176	0.000000	0.000000
O	6.087267	2.029091	0.000000
O	6.087267	0.000000	2.029091
O	4.058176	2.029091	2.029091
Sc	6.087267	2.029091	2.029091
B	4.058176	0.000000	4.058176
O	6.087267	2.029091	4.058176
O	6.087267	0.000000	6.087267
O	4.058176	2.029091	6.087267
Sc	6.087267	2.029091	6.087267
B	4.058176	4.058176	0.000000
O	6.087267	6.087267	0.000000
O	6.087267	4.058176	2.029091
O	4.058176	6.087267	2.029091
Sc	6.087267	6.087267	2.029091
B	4.058176	4.058176	4.058176
O	6.087267	6.087267	4.058176
O	6.087267	4.058176	6.087267
O	4.058176	6.087267	6.087267
Sc	6.087267	6.087267	6.087267
