112

Ba	0.000000	0.000000	0.000000
Ba	2.613508	-2.614173	-2.614173
Ce	-1.306754	-1.307092	-3.921265
Ce	6.533780	-1.307092	-1.307092
Ce	1.306754	1.307092	-3.921265
Ce	3.920272	1.307092	-1.307092
O	4.100052	-1.126630	-1.126630
O	-1.126974	1.126630	-4.101726
O	1.126974	-1.126630	-4.101726
O	1.486544	1.487553	-1.487553
O	6.354000	1.126630	-1.126630
O	1.486544	3.740804	-3.740804
O	3.740482	3.740804	-1.487553
O	3.740482	1.487553	-3.740804
Ba	5.227023	5.228351	0.000000
Ba	7.840531	2.614178	-2.614173
Ce	3.920269	3.921259	-3.921265
Ce	11.760804	3.921259	-1.307092
Ce	6.533777	6.535443	-3.921265
Ce	9.147295	6.535443	-1.307092
O	9.327076	4.101721	-1.126630
O	4.100049	6.354982	-4.101726
O	6.353997	4.101721	-4.101726
O	6.713568	6.715904	-1.487553
O	11.581023	6.354982	-1.126630
O	6.713568	8.969155	-3.740804
O	8.967505	8.969155	-1.487553
O	8.967505	6.715904	-3.740804
Ba	-5.227023	0.000000	-5.228351
Ba	-2.613515	-2.614173	-7.842525
Ce	-6.533777	-1.307092	-9.149616
Ce	1.306757	-1.307092	-6.535443
Ce	-3.920269	1.307092	-9.149616
Ce	-1.306751	1.307092	-6.535443
O	-1.126971	-1.126630	-6.354982
O	-6.353997	1.126630	-9.330077
O	-4.100050	-1.126630	-9.330077
O	-3.740479	1.487553	-6.715904
O	1.126977	1.126630	-6.354982
O	-3.740479	3.740804	-8.969155
O	-1.486541	3.740804	-6.715904
O	-1.486541	1.487553	-8.969155
Ba	0.000000	5.228351	-5.228351
Ba	2.613508	2.614178	-7.842525
Ce	-1.306754	3.921259	-9.149616
Ce	6.533780	3.921259	-6.535443
Ce	1.306754	6.535443	-9.149616
Ce	3.920272	6.535443	-6.535443
O	4.100052	4.101721	-6.354982
O	-1.126974	6.354982	-9.330077
O	1.126974	4.101721	-9.330077
O	1.486544	6.715904	-6.715904
O	6.354000	6.354982	-6.354982
O	1.486544	8.969155	-8.969155
O	3.740482	8.969155	-6.715904
O	3.740482	6.715904	-8.969155
Ba	5.227023	-5.228351	0.000000
Ba	7.840531	-7.842524	-2.614173
Ce	3.920269	-6.535443	-3.921265
Ce	11.760804	-6.535443	-1.307092
Ce	6.533777	-3.921259	-3.921265
Ce	9.147295	-3.921259	-1.307092
O	9.327076	-6.354982	-1.126630
O	4.100049	-4.101721	-4.101726
O	6.353997	-6.354982	-4.101726
O	6.713568	-3.740798	-1.487553
O	11.581023	-4.101721	-1.126630
O	6.713568	-1.487547	-3.740804
O	8.967505	-1.487547	-1.487553
O	8.967505	-3.740798	-3.740804
Ba	10.454047	0.000000	0.000000
Ba	13.067555	-2.614173	-2.614173
Ce	9.147292	-1.307092	-3.921265
Ce	16.987827	-1.307092	-1.307092
Ce	11.760801	1.307092	-3.921265
Ce	14.374319	1.307092	-1.307092
O	14.554099	-1.126630	-1.126630
O	9.327073	1.126630	-4.101726
O	11.581020	-1.126630	-4.101726
O	11.940591	1.487553	-1.487553
O	16.808047	1.126630	-1.126630
O	11.940591	3.740804	-3.740804
O	14.194529	3.740804	-1.487553
O	14.194529	1.487553	-3.740804
Ba	0.000000	-5.228351	-5.228351
Ba	2.613508	-7.842524	-7.842525
Ce	-1.306754	-6.535443	-9.149616
Ce	6.533780	-6.535443	-6.535443
Ce	1.306754	-3.921259	-9.149616
Ce	3.920272	-3.921259	-6.535443
O	4.100052	-6.354982	-6.354982
O	-1.126974	-4.101721	-9.330077
O	1.126974	-6.354982	-9.330077
O	1.486544	-3.740798	-6.715904
O	6.354000	-4.101721	-6.354982
O	1.486544	-1.487547	-8.969155
O	3.740482	-1.487547	-6.715904
O	3.740482	-3.740798	-8.969155
Ba	5.227023	0.000000	-5.228351
Ba	7.840531	-2.614173	-7.842525
Ce	3.920269	-1.307092	-9.149616
Ce	11.760804	-1.307092	-6.535443
Ce	6.533777	1.307092	-9.149616
Ce	9.147295	1.307092	-6.535443
O	9.327076	-1.126630	-6.354982
O	4.100049	1.126630	-9.330077
O	6.353997	-1.126630	-9.330077
O	6.713568	1.487553	-6.715904
O	11.581023	1.126630	-6.354982
O	6.713568	3.740804	-8.969155
O	8.967505	3.740804	-6.715904
O	8.967505	1.487553	-8.969155
