40

Mn	0.000000	0.000000	0.000000
Na	2.018175	2.018175	2.018175
O	0.000000	2.018175	2.018175
O	2.018175	0.000000	2.018175
O	2.018175	2.018175	0.000000
Mn	0.000000	0.000000	4.036350
Na	2.018175	2.018175	6.054526
O	0.000000	2.018175	6.054526
O	2.018175	0.000000	6.054526
O	2.018175	2.018175	4.036350
Mn	0.000000	4.036350	0.000000
Na	2.018175	6.054526	2.018175
O	0.000000	6.054526	2.018175
O	2.018175	4.036350	2.018175
O	2.018175	6.054526	0.000000
Mn	0.000000	4.036350	4.036350
Na	2.018175	6.054526	6.054526
O	0.000000	6.054526	6.054526
O	2.018175	4.036350	6.054526
O	2.018175	6.054526	4.036350
Mn	4.036350	0.000000	0.000000
Na	6.054526	2.018175	2.018175
O	4.036350	2.018175	2.018175
O	6.054526	0.000000	2.018175
O	6.054526	2.018175	0.000000
Mn	4.036350	0.000000	4.036350
Na	6.054526	2.018175	6.054526
O	4.036350	2.018175	6.054526
O	6.054526	0.000000	6.054526
O	6.054526	2.018175	4.036350
Mn	4.036350	4.036350	0.000000
Na	6.054526	6.054526	2.018175
O	4.036350	6.054526	2.018175
O	6.054526	4.036350	2.018175
O	6.054526	6.054526	0.000000
Mn	4.036350	4.036350	4.036350
Na	6.054526	6.054526	6.054526
O	4.036350	6.054526	6.054526
O	6.054526	4.036350	6.054526
O	6.054526	6.054526	4.036350
