40

Cd	0.000000	0.000000	0.000000
O	0.000000	2.181700	2.181700
O	2.181700	0.000000	2.181700
O	2.181700	2.181700	0.000000
Y	2.181700	2.181700	2.181700
Cd	0.000000	0.000000	4.363400
O	0.000000	2.181700	6.545101
O	2.181700	0.000000	6.545101
O	2.181700	2.181700	4.363400
Y	2.181700	2.181700	6.545101
Cd	0.000000	4.363400	0.000000
O	0.000000	6.545101	2.181700
O	2.181700	4.363400	2.181700
O	2.181700	6.545101	0.000000
Y	2.181700	6.545101	2.181700
Cd	0.000000	4.363400	4.363400
O	0.000000	6.545101	6.545101
O	2.181700	4.363400	6.545101
O	2.181700	6.545101	4.363400
Y	2.181700	6.545101	6.545101
Cd	4.363400	0.000000	0.000000
O	4.363400	2.181700	2.181700
O	6.545101	0.000000	2.181700
O	6.545101	2.181700	0.000000
Y	6.545101	2.181700	2.181700
Cd	4.363400	0.000000	4.363400
O	4.363400	2.181700	6.545101
O	6.545101	0.000000	6.545101
O	6.545101	2.181700	4.363400
Y	6.545101	2.181700	6.545101
Cd	4.363400	4.363400	0.000000
O	4.363400	6.545101	2.181700
O	6.545101	4.363400	2.181700
O	6.545101	6.545101	0.000000
Y	6.545101	6.545101	2.181700
Cd	4.363400	4.363400	4.363400
O	4.363400	6.545101	6.545101
O	6.545101	4.363400	6.545101
O	6.545101	6.545101	4.363400
Y	6.545101	6.545101	6.545101
