40

O	2.106550	2.106550	0.000000
O	0.000000	2.106550	2.106550
O	2.106550	0.000000	2.106550
Sb	0.000000	0.000000	0.000000
Te	2.106550	2.106550	2.106550
O	2.106550	2.106550	4.213083
O	0.000000	2.106550	6.319633
O	2.106550	0.000000	6.319633
Sb	0.000000	0.000000	4.213083
Te	2.106550	2.106550	6.319633
O	2.106550	6.319633	0.000000
O	0.000000	6.319633	2.106550
O	2.106550	4.213083	2.106550
Sb	0.000000	4.213083	0.000000
Te	2.106550	6.319633	2.106550
O	2.106550	6.319633	4.213083
O	0.000000	6.319633	6.319633
O	2.106550	4.213083	6.319633
Sb	0.000000	4.213083	4.213083
Te	2.106550	6.319633	6.319633
O	6.319633	2.106550	0.000000
O	4.213083	2.106550	2.106550
O	6.319633	0.000000	2.106550
Sb	4.213083	0.000000	0.000000
Te	6.319633	2.106550	2.106550
O	6.319633	2.106550	4.213083
O	4.213083	2.106550	6.319633
O	6.319633	0.000000	6.319633
Sb	4.213083	0.000000	4.213083
Te	6.319633	2.106550	6.319633
O	6.319633	6.319633	0.000000
O	4.213083	6.319633	2.106550
O	6.319633	4.213083	2.106550
Sb	4.213083	4.213083	0.000000
Te	6.319633	6.319633	2.106550
O	6.319633	6.319633	4.213083
O	4.213083	6.319633	6.319633
O	6.319633	4.213083	6.319633
Sb	4.213083	4.213083	4.213083
Te	6.319633	6.319633	6.319633
