40

Au	2.005167	2.005167	2.005167
Co	0.000000	0.000000	0.000000
O	0.000000	2.005167	2.005167
O	2.005167	0.000000	2.005167
O	2.005167	2.005167	0.000000
Au	2.005167	2.005167	6.015501
Co	0.000000	0.000000	4.010334
O	0.000000	2.005167	6.015501
O	2.005167	0.000000	6.015501
O	2.005167	2.005167	4.010334
Au	2.005167	6.015501	2.005167
Co	0.000000	4.010334	0.000000
O	0.000000	6.015501	2.005167
O	2.005167	4.010334	2.005167
O	2.005167	6.015501	0.000000
Au	2.005167	6.015501	6.015501
Co	0.000000	4.010334	4.010334
O	0.000000	6.015501	6.015501
O	2.005167	4.010334	6.015501
O	2.005167	6.015501	4.010334
Au	6.015501	2.005167	2.005167
Co	4.010334	0.000000	0.000000
O	4.010334	2.005167	2.005167
O	6.015501	0.000000	2.005167
O	6.015501	2.005167	0.000000
Au	6.015501	2.005167	6.015501
Co	4.010334	0.000000	4.010334
O	4.010334	2.005167	6.015501
O	6.015501	0.000000	6.015501
O	6.015501	2.005167	4.010334
Au	6.015501	6.015501	2.005167
Co	4.010334	4.010334	0.000000
O	4.010334	6.015501	2.005167
O	6.015501	4.010334	2.005167
O	6.015501	6.015501	0.000000
Au	6.015501	6.015501	6.015501
Co	4.010334	4.010334	4.010334
O	4.010334	6.015501	6.015501
O	6.015501	4.010334	6.015501
O	6.015501	6.015501	4.010334
