40

Hf	2.027697	2.027697	2.027697
O	2.027697	2.027697	0.000000
O	0.000000	2.027697	2.027697
O	2.027697	0.000000	2.027697
W	0.000000	0.000000	0.000000
Hf	2.027697	2.027697	6.083098
O	2.027697	2.027697	4.055402
O	0.000000	2.027697	6.083098
O	2.027697	0.000000	6.083098
W	0.000000	0.000000	4.055402
Hf	2.027697	6.083098	2.027697
O	2.027697	6.083098	0.000000
O	0.000000	6.083098	2.027697
O	2.027697	4.055402	2.027697
W	0.000000	4.055402	0.000000
Hf	2.027697	6.083098	6.083098
O	2.027697	6.083098	4.055402
O	0.000000	6.083098	6.083098
O	2.027697	4.055402	6.083098
W	0.000000	4.055402	4.055402
Hf	6.083098	2.027697	2.027697
O	6.083098	2.027697	0.000000
O	4.055402	2.027697	2.027697
O	6.083098	0.000000	2.027697
W	4.055402	0.000000	0.000000
Hf	6.083098	2.027697	6.083098
O	6.083098	2.027697	4.055402
O	4.055402	2.027697	6.083098
O	6.083098	0.000000	6.083098
W	4.055402	0.000000	4.055402
Hf	6.083098	6.083098	2.027697
O	6.083098	6.083098	0.000000
O	4.055402	6.083098	2.027697
O	6.083098	4.055402	2.027697
W	4.055402	4.055402	0.000000
Hf	6.083098	6.083098	6.083098
O	6.083098	6.083098	4.055402
O	4.055402	6.083098	6.083098
O	6.083098	4.055402	6.083098
W	4.055402	4.055402	4.055402
