40

Hf	2.047891	2.047891	2.047891
O	2.047891	2.047891	0.000000
O	2.047891	0.000000	2.047891
O	0.000000	2.047891	2.047891
W	0.000000	0.000000	0.000000
Hf	2.047891	2.047891	6.143673
O	2.047891	2.047891	4.095782
O	2.047891	0.000000	6.143673
O	0.000000	2.047891	6.143673
W	0.000000	0.000000	4.095782
Hf	2.047891	6.143673	2.047891
O	2.047891	6.143673	0.000000
O	2.047891	4.095782	2.047891
O	0.000000	6.143673	2.047891
W	0.000000	4.095782	0.000000
Hf	2.047891	6.143673	6.143673
O	2.047891	6.143673	4.095782
O	2.047891	4.095782	6.143673
O	0.000000	6.143673	6.143673
W	0.000000	4.095782	4.095782
Hf	6.143673	2.047891	2.047891
O	6.143673	2.047891	0.000000
O	6.143673	0.000000	2.047891
O	4.095782	2.047891	2.047891
W	4.095782	0.000000	0.000000
Hf	6.143673	2.047891	6.143673
O	6.143673	2.047891	4.095782
O	6.143673	0.000000	6.143673
O	4.095782	2.047891	6.143673
W	4.095782	0.000000	4.095782
Hf	6.143673	6.143673	2.047891
O	6.143673	6.143673	0.000000
O	6.143673	4.095782	2.047891
O	4.095782	6.143673	2.047891
W	4.095782	4.095782	0.000000
Hf	6.143673	6.143673	6.143673
O	6.143673	6.143673	4.095782
O	6.143673	4.095782	6.143673
O	4.095782	6.143673	6.143673
W	4.095782	4.095782	4.095782
