112

Gd	0.000000	0.000000	0.000000
Gd	2.367311	-2.367773	-2.367773
Lu	-1.183655	-1.183887	-3.551660
Lu	3.550966	1.183887	-1.183887
Lu	5.918276	-1.183887	-1.183887
Lu	1.183655	1.183887	-3.551660
O	3.667894	-1.066370	-1.066370
O	-1.066727	1.066370	-3.669176
O	1.066727	-1.066370	-3.669176
O	1.300584	1.301403	-1.301403
O	5.801348	1.066370	-1.066370
O	1.300584	3.434143	-3.434143
O	3.434037	3.434143	-1.301403
O	3.434037	1.301403	-3.434143
Gd	4.734621	4.735546	0.000000
Gd	7.101932	2.367773	-2.367773
Lu	3.550966	3.551660	-3.551660
Lu	8.285587	5.919433	-1.183887
Lu	10.652897	3.551660	-1.183887
Lu	5.918276	5.919433	-3.551660
O	8.402516	3.669176	-1.066370
O	3.667894	5.801916	-3.669176
O	5.801348	3.669176	-3.669176
O	6.035205	6.036949	-1.301403
O	10.535969	5.801916	-1.066370
O	6.035205	8.169689	-3.434143
O	8.168658	8.169689	-1.301403
O	8.168658	6.036949	-3.434143
Gd	-4.734621	0.000000	-4.735546
Gd	-2.367311	-2.367773	-7.103319
Lu	-5.918276	-1.183887	-8.287206
Lu	-1.183655	1.183887	-5.919433
Lu	1.183655	-1.183887	-5.919433
Lu	-3.550966	1.183887	-8.287206
O	-1.066727	-1.066370	-5.801916
O	-5.801348	1.066370	-8.404722
O	-3.667894	-1.066370	-8.404722
O	-3.434037	1.301403	-6.036949
O	1.066727	1.066370	-5.801916
O	-3.434037	3.434143	-8.169689
O	-1.300584	3.434143	-6.036949
O	-1.300584	1.301403	-8.169689
Gd	0.000000	4.735546	-4.735546
Gd	2.367311	2.367773	-7.103319
Lu	-1.183655	3.551660	-8.287206
Lu	3.550966	5.919433	-5.919433
Lu	5.918276	3.551660	-5.919433
Lu	1.183655	5.919433	-8.287206
O	3.667894	3.669176	-5.801916
O	-1.066727	5.801916	-8.404722
O	1.066727	3.669176	-8.404722
O	1.300584	6.036949	-6.036949
O	5.801348	5.801916	-5.801916
O	1.300584	8.169689	-8.169689
O	3.434037	8.169689	-6.036949
O	3.434037	6.036949	-8.169689
Gd	4.734621	-4.735546	0.000000
Gd	7.101932	-7.103319	-2.367773
Lu	3.550966	-5.919433	-3.551660
Lu	8.285587	-3.551660	-1.183887
Lu	10.652897	-5.919433	-1.183887
Lu	5.918276	-3.551660	-3.551660
O	8.402516	-5.801916	-1.066370
O	3.667894	-3.669176	-3.669176
O	5.801348	-5.801916	-3.669176
O	6.035205	-3.434143	-1.301403
O	10.535969	-3.669176	-1.066370
O	6.035205	-1.301403	-3.434143
O	8.168658	-1.301403	-1.301403
O	8.168658	-3.434143	-3.434143
Gd	9.469242	0.000000	0.000000
Gd	11.836553	-2.367773	-2.367773
Lu	8.285587	-1.183887	-3.551660
Lu	13.020208	1.183887	-1.183887
Lu	15.387519	-1.183887	-1.183887
Lu	10.652897	1.183887	-3.551660
O	13.137137	-1.066370	-1.066370
O	8.402516	1.066370	-3.669176
O	10.535969	-1.066370	-3.669176
O	10.769826	1.301403	-1.301403
O	15.270590	1.066370	-1.066370
O	10.769826	3.434143	-3.434143
O	12.903279	3.434143	-1.301403
O	12.903279	1.301403	-3.434143
Gd	0.000000	-4.735546	-4.735546
Gd	2.367311	-7.103319	-7.103319
Lu	-1.183655	-5.919433	-8.287206
Lu	3.550966	-3.551660	-5.919433
Lu	5.918276	-5.919433	-5.919433
Lu	1.183655	-3.551660	-8.287206
O	3.667894	-5.801916	-5.801916
O	-1.066727	-3.669176	-8.404722
O	1.066727	-5.801916	-8.404722
O	1.300584	-3.434143	-6.036949
O	5.801348	-3.669176	-5.801916
O	1.300584	-1.301403	-8.169689
O	3.434037	-1.301403	-6.036949
O	3.434037	-3.434143	-8.169689
Gd	4.734621	0.000000	-4.735546
Gd	7.101932	-2.367773	-7.103319
Lu	3.550966	-1.183887	-8.287206
Lu	8.285587	1.183887	-5.919433
Lu	10.652897	-1.183887	-5.919433
Lu	5.918276	1.183887	-8.287206
O	8.402516	-1.066370	-5.801916
O	3.667894	1.066370	-8.404722
O	5.801348	-1.066370	-8.404722
O	6.035205	1.301403	-6.036949
O	10.535969	1.066370	-5.801916
O	6.035205	3.434143	-8.169689
O	8.168658	3.434143	-6.036949
O	8.168658	1.301403	-8.169689
