40

Ge	1.898703	1.898703	1.898703
O	1.898703	1.898703	0.000000
O	1.898703	0.000000	1.898703
O	0.000000	1.898703	1.898703
Sc	0.000000	0.000000	0.000000
Ge	1.898703	1.898703	5.696108
O	1.898703	1.898703	3.797406
O	1.898703	0.000000	5.696108
O	0.000000	1.898703	5.696108
Sc	0.000000	0.000000	3.797406
Ge	1.898703	5.696108	1.898703
O	1.898703	5.696108	0.000000
O	1.898703	3.797406	1.898703
O	0.000000	5.696108	1.898703
Sc	0.000000	3.797406	0.000000
Ge	1.898703	5.696108	5.696108
O	1.898703	5.696108	3.797406
O	1.898703	3.797406	5.696108
O	0.000000	5.696108	5.696108
Sc	0.000000	3.797406	3.797406
Ge	5.696108	1.898703	1.898703
O	5.696108	1.898703	0.000000
O	5.696108	0.000000	1.898703
O	3.797406	1.898703	1.898703
Sc	3.797406	0.000000	0.000000
Ge	5.696108	1.898703	5.696108
O	5.696108	1.898703	3.797406
O	5.696108	0.000000	5.696108
O	3.797406	1.898703	5.696108
Sc	3.797406	0.000000	3.797406
Ge	5.696108	5.696108	1.898703
O	5.696108	5.696108	0.000000
O	5.696108	3.797406	1.898703
O	3.797406	5.696108	1.898703
Sc	3.797406	3.797406	0.000000
Ge	5.696108	5.696108	5.696108
O	5.696108	5.696108	3.797406
O	5.696108	3.797406	5.696108
O	3.797406	5.696108	5.696108
Sc	3.797406	3.797406	3.797406
