40

Ge	1.880812	1.880812	1.880812
O	1.880812	1.880812	0.000000
O	0.000000	1.880812	1.880812
O	1.880812	0.000000	1.880812
Sc	0.000000	0.000000	0.000000
Ge	1.880812	1.880812	5.642421
O	1.880812	1.880812	3.761609
O	0.000000	1.880812	5.642421
O	1.880812	0.000000	5.642421
Sc	0.000000	0.000000	3.761609
Ge	1.880812	5.642421	1.880812
O	1.880812	5.642421	0.000000
O	0.000000	5.642421	1.880812
O	1.880812	3.761609	1.880812
Sc	0.000000	3.761609	0.000000
Ge	1.880812	5.642421	5.642421
O	1.880812	5.642421	3.761609
O	0.000000	5.642421	5.642421
O	1.880812	3.761609	5.642421
Sc	0.000000	3.761609	3.761609
Ge	5.642421	1.880812	1.880812
O	5.642421	1.880812	0.000000
O	3.761609	1.880812	1.880812
O	5.642421	0.000000	1.880812
Sc	3.761609	0.000000	0.000000
Ge	5.642421	1.880812	5.642421
O	5.642421	1.880812	3.761609
O	3.761609	1.880812	5.642421
O	5.642421	0.000000	5.642421
Sc	3.761609	0.000000	3.761609
Ge	5.642421	5.642421	1.880812
O	5.642421	5.642421	0.000000
O	3.761609	5.642421	1.880812
O	5.642421	3.761609	1.880812
Sc	3.761609	3.761609	0.000000
Ge	5.642421	5.642421	5.642421
O	5.642421	5.642421	3.761609
O	3.761609	5.642421	5.642421
O	5.642421	3.761609	5.642421
Sc	3.761609	3.761609	3.761609
