40

Al	0.000000	0.000000	0.000000
Cu	1.830488	1.830488	1.830488
O	1.830488	1.830488	0.000000
O	1.830488	0.000000	1.830488
O	0.000000	1.830488	1.830488
Al	0.000000	0.000000	3.660973
Cu	1.830488	1.830488	5.491462
O	1.830488	1.830488	3.660973
O	1.830488	0.000000	5.491462
O	0.000000	1.830488	5.491462
Al	0.000000	3.660973	0.000000
Cu	1.830488	5.491462	1.830488
O	1.830488	5.491462	0.000000
O	1.830488	3.660973	1.830488
O	0.000000	5.491462	1.830488
Al	0.000000	3.660973	3.660973
Cu	1.830488	5.491462	5.491462
O	1.830488	5.491462	3.660973
O	1.830488	3.660973	5.491462
O	0.000000	5.491462	5.491462
Al	3.660973	0.000000	0.000000
Cu	5.491462	1.830488	1.830488
O	5.491462	1.830488	0.000000
O	5.491462	0.000000	1.830488
O	3.660973	1.830488	1.830488
Al	3.660973	0.000000	3.660973
Cu	5.491462	1.830488	5.491462
O	5.491462	1.830488	3.660973
O	5.491462	0.000000	5.491462
O	3.660973	1.830488	5.491462
Al	3.660973	3.660973	0.000000
Cu	5.491462	5.491462	1.830488
O	5.491462	5.491462	0.000000
O	5.491462	3.660973	1.830488
O	3.660973	5.491462	1.830488
Al	3.660973	3.660973	3.660973
Cu	5.491462	5.491462	5.491462
O	5.491462	5.491462	3.660973
O	5.491462	3.660973	5.491462
O	3.660973	5.491462	5.491462
