40

Al	0.000000	0.000000	0.000000
Cu	1.846155	1.846155	1.846155
O	0.000000	1.846155	1.846155
O	1.846155	0.000000	1.846155
O	1.846155	1.846155	0.000000
Al	0.000000	0.000000	3.692310
Cu	1.846155	1.846155	5.538465
O	0.000000	1.846155	5.538465
O	1.846155	0.000000	5.538465
O	1.846155	1.846155	3.692310
Al	0.000000	3.692310	0.000000
Cu	1.846155	5.538465	1.846155
O	0.000000	5.538465	1.846155
O	1.846155	3.692310	1.846155
O	1.846155	5.538465	0.000000
Al	0.000000	3.692310	3.692310
Cu	1.846155	5.538465	5.538465
O	0.000000	5.538465	5.538465
O	1.846155	3.692310	5.538465
O	1.846155	5.538465	3.692310
Al	3.692310	0.000000	0.000000
Cu	5.538465	1.846155	1.846155
O	3.692310	1.846155	1.846155
O	5.538465	0.000000	1.846155
O	5.538465	1.846155	0.000000
Al	3.692310	0.000000	3.692310
Cu	5.538465	1.846155	5.538465
O	3.692310	1.846155	5.538465
O	5.538465	0.000000	5.538465
O	5.538465	1.846155	3.692310
Al	3.692310	3.692310	0.000000
Cu	5.538465	5.538465	1.846155
O	3.692310	5.538465	1.846155
O	5.538465	3.692310	1.846155
O	5.538465	5.538465	0.000000
Al	3.692310	3.692310	3.692310
Cu	5.538465	5.538465	5.538465
O	3.692310	5.538465	5.538465
O	5.538465	3.692310	5.538465
O	5.538465	5.538465	3.692310
