40

Ag	1.999179	1.999179	1.999179
O	1.999179	1.999179	0.000000
O	0.000000	1.999179	1.999179
O	1.999179	0.000000	1.999179
Tm	0.000000	0.000000	0.000000
Ag	1.999179	1.999179	5.997544
O	1.999179	1.999179	3.998366
O	0.000000	1.999179	5.997544
O	1.999179	0.000000	5.997544
Tm	0.000000	0.000000	3.998366
Ag	1.999179	5.997544	1.999179
O	1.999179	5.997544	0.000000
O	0.000000	5.997544	1.999179
O	1.999179	3.998366	1.999179
Tm	0.000000	3.998366	0.000000
Ag	1.999179	5.997544	5.997544
O	1.999179	5.997544	3.998366
O	0.000000	5.997544	5.997544
O	1.999179	3.998366	5.997544
Tm	0.000000	3.998366	3.998366
Ag	5.997544	1.999179	1.999179
O	5.997544	1.999179	0.000000
O	3.998366	1.999179	1.999179
O	5.997544	0.000000	1.999179
Tm	3.998366	0.000000	0.000000
Ag	5.997544	1.999179	5.997544
O	5.997544	1.999179	3.998366
O	3.998366	1.999179	5.997544
O	5.997544	0.000000	5.997544
Tm	3.998366	0.000000	3.998366
Ag	5.997544	5.997544	1.999179
O	5.997544	5.997544	0.000000
O	3.998366	5.997544	1.999179
O	5.997544	3.998366	1.999179
Tm	3.998366	3.998366	0.000000
Ag	5.997544	5.997544	5.997544
O	5.997544	5.997544	3.998366
O	3.998366	5.997544	5.997544
O	5.997544	3.998366	5.997544
Tm	3.998366	3.998366	3.998366
