40

Co	1.848711	1.848711	1.848711
O	0.000000	1.848711	1.848711
O	1.848711	0.000000	1.848711
O	1.848711	1.848711	0.000000
W	0.000000	0.000000	0.000000
Co	1.848711	1.848711	5.546134
O	0.000000	1.848711	5.546134
O	1.848711	0.000000	5.546134
O	1.848711	1.848711	3.697423
W	0.000000	0.000000	3.697423
Co	1.848711	5.546134	1.848711
O	0.000000	5.546134	1.848711
O	1.848711	3.697423	1.848711
O	1.848711	5.546134	0.000000
W	0.000000	3.697423	0.000000
Co	1.848711	5.546134	5.546134
O	0.000000	5.546134	5.546134
O	1.848711	3.697423	5.546134
O	1.848711	5.546134	3.697423
W	0.000000	3.697423	3.697423
Co	5.546134	1.848711	1.848711
O	3.697423	1.848711	1.848711
O	5.546134	0.000000	1.848711
O	5.546134	1.848711	0.000000
W	3.697423	0.000000	0.000000
Co	5.546134	1.848711	5.546134
O	3.697423	1.848711	5.546134
O	5.546134	0.000000	5.546134
O	5.546134	1.848711	3.697423
W	3.697423	0.000000	3.697423
Co	5.546134	5.546134	1.848711
O	3.697423	5.546134	1.848711
O	5.546134	3.697423	1.848711
O	5.546134	5.546134	0.000000
W	3.697423	3.697423	0.000000
Co	5.546134	5.546134	5.546134
O	3.697423	5.546134	5.546134
O	5.546134	3.697423	5.546134
O	5.546134	5.546134	3.697423
W	3.697423	3.697423	3.697423
