40

Eu	0.000000	0.000000	0.000000
O	2.053606	2.053606	0.000000
O	2.053606	0.000000	2.053606
O	0.000000	2.053606	2.053606
Yb	2.053606	2.053606	2.053606
Eu	0.000000	0.000000	4.107218
O	2.053606	2.053606	4.107218
O	2.053606	0.000000	6.160823
O	0.000000	2.053606	6.160823
Yb	2.053606	2.053606	6.160823
Eu	0.000000	4.107218	0.000000
O	2.053606	6.160823	0.000000
O	2.053606	4.107218	2.053606
O	0.000000	6.160823	2.053606
Yb	2.053606	6.160823	2.053606
Eu	0.000000	4.107218	4.107218
O	2.053606	6.160823	4.107218
O	2.053606	4.107218	6.160823
O	0.000000	6.160823	6.160823
Yb	2.053606	6.160823	6.160823
Eu	4.107218	0.000000	0.000000
O	6.160823	2.053606	0.000000
O	6.160823	0.000000	2.053606
O	4.107218	2.053606	2.053606
Yb	6.160823	2.053606	2.053606
Eu	4.107218	0.000000	4.107218
O	6.160823	2.053606	4.107218
O	6.160823	0.000000	6.160823
O	4.107218	2.053606	6.160823
Yb	6.160823	2.053606	6.160823
Eu	4.107218	4.107218	0.000000
O	6.160823	6.160823	0.000000
O	6.160823	4.107218	2.053606
O	4.107218	6.160823	2.053606
Yb	6.160823	6.160823	2.053606
Eu	4.107218	4.107218	4.107218
O	6.160823	6.160823	4.107218
O	6.160823	4.107218	6.160823
O	4.107218	6.160823	6.160823
Yb	6.160823	6.160823	6.160823
