40

O	0.000000	1.945112	1.945112
O	1.945112	0.000000	1.945112
O	1.945112	1.945112	0.000000
P	0.000000	0.000000	0.000000
Ti	1.945112	1.945112	1.945112
O	0.000000	1.945112	5.835336
O	1.945112	0.000000	5.835336
O	1.945112	1.945112	3.890224
P	0.000000	0.000000	3.890224
Ti	1.945112	1.945112	5.835336
O	0.000000	5.835336	1.945112
O	1.945112	3.890224	1.945112
O	1.945112	5.835336	0.000000
P	0.000000	3.890224	0.000000
Ti	1.945112	5.835336	1.945112
O	0.000000	5.835336	5.835336
O	1.945112	3.890224	5.835336
O	1.945112	5.835336	3.890224
P	0.000000	3.890224	3.890224
Ti	1.945112	5.835336	5.835336
O	3.890224	1.945112	1.945112
O	5.835336	0.000000	1.945112
O	5.835336	1.945112	0.000000
P	3.890224	0.000000	0.000000
Ti	5.835336	1.945112	1.945112
O	3.890224	1.945112	5.835336
O	5.835336	0.000000	5.835336
O	5.835336	1.945112	3.890224
P	3.890224	0.000000	3.890224
Ti	5.835336	1.945112	5.835336
O	3.890224	5.835336	1.945112
O	5.835336	3.890224	1.945112
O	5.835336	5.835336	0.000000
P	3.890224	3.890224	0.000000
Ti	5.835336	5.835336	1.945112
O	3.890224	5.835336	5.835336
O	5.835336	3.890224	5.835336
O	5.835336	5.835336	3.890224
P	3.890224	3.890224	3.890224
Ti	5.835336	5.835336	5.835336
