112

Fe	0.000000	0.000000	0.000000
Fe	2.307958	-2.307088	-2.307088
Hg	-1.153979	-1.153544	-3.460633
Hg	3.461938	1.153544	-1.153544
Hg	5.769896	-1.153544	-1.153544
Hg	1.153979	1.153544	-3.460633
O	3.387138	-1.227423	-1.227423
O	-1.228779	1.227423	-3.386754
O	1.228779	-1.227423	-3.386754
O	1.079179	1.079666	-1.079666
O	5.844696	1.227423	-1.227423
O	1.079179	3.534511	-3.534511
O	3.536738	3.534511	-1.079666
O	3.536738	1.079666	-3.534511
Fe	4.615917	4.614177	0.000000
Fe	6.923875	2.307088	-2.307088
Hg	3.461938	3.460633	-3.460633
Hg	8.077855	5.767721	-1.153544
Hg	10.385813	3.460633	-1.153544
Hg	5.769896	5.767721	-3.460633
O	8.003055	3.386754	-1.227423
O	3.387138	5.841600	-3.386754
O	5.844696	3.386754	-3.386754
O	5.695096	5.693843	-1.079666
O	10.460613	5.841600	-1.227423
O	5.695096	8.148688	-3.534511
O	8.152655	8.148688	-1.079666
O	8.152655	5.693843	-3.534511
Fe	-4.615917	0.000000	-4.614177
Fe	-2.307958	-2.307088	-6.921265
Hg	-5.769896	-1.153544	-8.074810
Hg	-1.153979	1.153544	-5.767721
Hg	1.153979	-1.153544	-5.767721
Hg	-3.461938	1.153544	-8.074810
O	-1.228779	-1.227423	-5.841600
O	-5.844696	1.227423	-8.000931
O	-3.387138	-1.227423	-8.000931
O	-3.536738	1.079666	-5.693843
O	1.228779	1.227423	-5.841600
O	-3.536738	3.534511	-8.148688
O	-1.079179	3.534511	-5.693843
O	-1.079179	1.079666	-8.148688
Fe	0.000000	4.614177	-4.614177
Fe	2.307958	2.307088	-6.921265
Hg	-1.153979	3.460633	-8.074810
Hg	3.461938	5.767721	-5.767721
Hg	5.769896	3.460633	-5.767721
Hg	1.153979	5.767721	-8.074810
O	3.387138	3.386754	-5.841600
O	-1.228779	5.841600	-8.000931
O	1.228779	3.386754	-8.000931
O	1.079179	5.693843	-5.693843
O	5.844696	5.841600	-5.841600
O	1.079179	8.148688	-8.148688
O	3.536738	8.148688	-5.693843
O	3.536738	5.693843	-8.148688
Fe	4.615917	-4.614177	0.000000
Fe	6.923875	-6.921265	-2.307088
Hg	3.461938	-5.767721	-3.460633
Hg	8.077855	-3.460633	-1.153544
Hg	10.385813	-5.767721	-1.153544
Hg	5.769896	-3.460633	-3.460633
O	8.003055	-5.841600	-1.227423
O	3.387138	-3.386754	-3.386754
O	5.844696	-5.841600	-3.386754
O	5.695096	-3.534511	-1.079666
O	10.460613	-3.386754	-1.227423
O	5.695096	-1.079666	-3.534511
O	8.152655	-1.079666	-1.079666
O	8.152655	-3.534511	-3.534511
Fe	9.231834	0.000000	0.000000
Fe	11.539792	-2.307088	-2.307088
Hg	8.077855	-1.153544	-3.460633
Hg	12.693771	1.153544	-1.153544
Hg	15.001730	-1.153544	-1.153544
Hg	10.385813	1.153544	-3.460633
O	12.618971	-1.227423	-1.227423
O	8.003054	1.227423	-3.386754
O	10.460613	-1.227423	-3.386754
O	10.311013	1.079666	-1.079666
O	15.076530	1.227423	-1.227423
O	10.311013	3.534511	-3.534511
O	12.768571	3.534511	-1.079666
O	12.768571	1.079666	-3.534511
Fe	0.000000	-4.614177	-4.614177
Fe	2.307958	-6.921265	-6.921265
Hg	-1.153979	-5.767721	-8.074810
Hg	3.461938	-3.460633	-5.767721
Hg	5.769896	-5.767721	-5.767721
Hg	1.153979	-3.460633	-8.074810
O	3.387138	-5.841600	-5.841600
O	-1.228779	-3.386754	-8.000931
O	1.228779	-5.841600	-8.000931
O	1.079179	-3.534511	-5.693843
O	5.844696	-3.386754	-5.841600
O	1.079179	-1.079666	-8.148688
O	3.536738	-1.079666	-5.693843
O	3.536738	-3.534511	-8.148688
Fe	4.615917	0.000000	-4.614177
Fe	6.923875	-2.307088	-6.921265
Hg	3.461938	-1.153544	-8.074810
Hg	8.077855	1.153544	-5.767721
Hg	10.385813	-1.153544	-5.767721
Hg	5.769896	1.153544	-8.074810
O	8.003055	-1.227423	-5.841600
O	3.387138	1.227423	-8.000931
O	5.844696	-1.227423	-8.000931
O	5.695096	1.079666	-5.693843
O	10.460613	1.227423	-5.841600
O	5.695096	3.534511	-8.148688
O	8.152655	3.534511	-5.693843
O	8.152655	1.079666	-8.148688
