40

O	0.000000	2.004255	2.004255
O	2.004255	0.000000	2.004255
O	2.004255	2.004255	0.000000
P	0.000000	0.000000	0.000000
Ta	2.004255	2.004255	2.004255
O	0.000000	2.004255	6.012765
O	2.004255	0.000000	6.012765
O	2.004255	2.004255	4.008510
P	0.000000	0.000000	4.008510
Ta	2.004255	2.004255	6.012765
O	0.000000	6.012765	2.004255
O	2.004255	4.008510	2.004255
O	2.004255	6.012765	0.000000
P	0.000000	4.008510	0.000000
Ta	2.004255	6.012765	2.004255
O	0.000000	6.012765	6.012765
O	2.004255	4.008510	6.012765
O	2.004255	6.012765	4.008510
P	0.000000	4.008510	4.008510
Ta	2.004255	6.012765	6.012765
O	4.008510	2.004255	2.004255
O	6.012765	0.000000	2.004255
O	6.012765	2.004255	0.000000
P	4.008510	0.000000	0.000000
Ta	6.012765	2.004255	2.004255
O	4.008510	2.004255	6.012765
O	6.012765	0.000000	6.012765
O	6.012765	2.004255	4.008510
P	4.008510	0.000000	4.008510
Ta	6.012765	2.004255	6.012765
O	4.008510	6.012765	2.004255
O	6.012765	4.008510	2.004255
O	6.012765	6.012765	0.000000
P	4.008510	4.008510	0.000000
Ta	6.012765	6.012765	2.004255
O	4.008510	6.012765	6.012765
O	6.012765	4.008510	6.012765
O	6.012765	6.012765	4.008510
P	4.008510	4.008510	4.008510
Ta	6.012765	6.012765	6.012765
