40

In	0.000000	2.976519	2.976519
In	2.976519	0.000000	2.976519
In	2.976519	2.976519	0.000000
O	0.000000	0.000000	0.000000
Yb	2.976519	2.976519	2.976519
In	0.000000	2.976519	8.929557
In	2.976519	0.000000	8.929557
In	2.976519	2.976519	5.953038
O	0.000000	0.000000	5.953038
Yb	2.976519	2.976519	8.929557
In	0.000000	8.929557	2.976519
In	2.976519	5.953038	2.976519
In	2.976519	8.929557	0.000000
O	0.000000	5.953038	0.000000
Yb	2.976519	8.929557	2.976519
In	0.000000	8.929557	8.929557
In	2.976519	5.953038	8.929557
In	2.976519	8.929557	5.953038
O	0.000000	5.953038	5.953038
Yb	2.976519	8.929557	8.929557
In	5.953038	2.976519	2.976519
In	8.929557	0.000000	2.976519
In	8.929557	2.976519	0.000000
O	5.953038	0.000000	0.000000
Yb	8.929557	2.976519	2.976519
In	5.953038	2.976519	8.929557
In	8.929557	0.000000	8.929557
In	8.929557	2.976519	5.953038
O	5.953038	0.000000	5.953038
Yb	8.929557	2.976519	8.929557
In	5.953038	8.929557	2.976519
In	8.929557	5.953038	2.976519
In	8.929557	8.929557	0.000000
O	5.953038	5.953038	0.000000
Yb	8.929557	8.929557	2.976519
In	5.953038	8.929557	8.929557
In	8.929557	5.953038	8.929557
In	8.929557	8.929557	5.953038
O	5.953038	5.953038	5.953038
Yb	8.929557	8.929557	8.929557
