112

Be	0.000000	0.000000	0.000000
Be	2.124538	-2.124486	-2.124486
O	0.975049	0.974986	-0.974986
O	1.149489	-1.149509	-3.099472
O	3.099587	-1.149509	-1.149509
O	-1.149489	1.149509	-3.099472
O	3.274037	3.273995	-0.974986
O	3.274037	0.974986	-3.273995
O	0.975049	3.273995	-3.273995
O	5.398576	1.149509	-1.149509
Zr	-1.062274	-1.062248	-3.186733
Zr	5.311361	-1.062248	-1.062248
Zr	3.186812	1.062248	-1.062248
Zr	1.062274	1.062248	-3.186733
Be	4.249085	4.248975	0.000000
Be	6.373623	2.124489	-2.124486
O	5.224134	5.223961	-0.974986
O	5.398574	3.099466	-3.099472
O	7.348672	3.099466	-1.149509
O	3.099596	5.398484	-3.099472
O	7.523122	7.522969	-0.974986
O	7.523122	5.223961	-3.273995
O	5.224134	7.522969	-3.273995
O	9.647660	5.398484	-1.149509
Zr	3.186811	3.186727	-3.186733
Zr	9.560445	3.186727	-1.062248
Zr	7.435897	5.311222	-1.062248
Zr	5.311359	5.311222	-3.186733
Be	-4.249085	0.000000	-4.248975
Be	-2.124546	-2.124486	-6.373460
O	-3.274036	0.974986	-5.223961
O	-3.099596	-1.149509	-7.348447
O	-1.149497	-1.149509	-5.398484
O	-5.398574	1.149509	-7.348447
O	-0.975047	3.273995	-5.223961
O	-0.975047	0.974986	-7.522969
O	-3.274036	3.273995	-7.522969
O	1.149491	1.149509	-5.398484
Zr	-5.311359	-1.062248	-7.435708
Zr	1.062276	-1.062248	-5.311222
Zr	-1.062272	1.062248	-5.311222
Zr	-3.186811	1.062248	-7.435708
Be	0.000000	4.248975	-4.248975
Be	2.124538	2.124489	-6.373460
O	0.975049	5.223961	-5.223961
O	1.149489	3.099466	-7.348447
O	3.099587	3.099466	-5.398484
O	-1.149489	5.398484	-7.348447
O	3.274037	7.522969	-5.223961
O	3.274037	5.223961	-7.522969
O	0.975049	7.522969	-7.522969
O	5.398576	5.398484	-5.398484
Zr	-1.062274	3.186727	-7.435708
Zr	5.311361	3.186727	-5.311222
Zr	3.186812	5.311222	-5.311222
Zr	1.062274	5.311222	-7.435708
Be	4.249085	-4.248975	0.000000
Be	6.373623	-6.373460	-2.124486
O	5.224134	-3.273988	-0.974986
O	5.398574	-5.398484	-3.099472
O	7.348672	-5.398484	-1.149509
O	3.099596	-3.099466	-3.099472
O	7.523122	-0.974980	-0.974986
O	7.523122	-3.273988	-3.273995
O	5.224134	-0.974980	-3.273995
O	9.647660	-3.099466	-1.149509
Zr	3.186811	-5.311222	-3.186733
Zr	9.560445	-5.311222	-1.062248
Zr	7.435897	-3.186727	-1.062248
Zr	5.311359	-3.186727	-3.186733
Be	8.498170	0.000000	0.000000
Be	10.622708	-2.124486	-2.124486
O	9.473219	0.974986	-0.974986
O	9.647659	-1.149509	-3.099472
O	11.597757	-1.149509	-1.149509
O	7.348680	1.149509	-3.099472
O	11.772207	3.273995	-0.974986
O	11.772207	0.974986	-3.273995
O	9.473219	3.273995	-3.273995
O	13.896745	1.149509	-1.149509
Zr	7.435895	-1.062248	-3.186733
Zr	13.809530	-1.062248	-1.062248
Zr	11.684982	1.062248	-1.062248
Zr	9.560444	1.062248	-3.186733
Be	0.000000	-4.248975	-4.248975
Be	2.124538	-6.373460	-6.373460
O	0.975049	-3.273988	-5.223961
O	1.149489	-5.398484	-7.348447
O	3.099587	-5.398484	-5.398484
O	-1.149489	-3.099466	-7.348447
O	3.274037	-0.974980	-5.223961
O	3.274037	-3.273988	-7.522969
O	0.975049	-0.974980	-7.522969
O	5.398576	-3.099466	-5.398484
Zr	-1.062274	-5.311222	-7.435708
Zr	5.311361	-5.311222	-5.311222
Zr	3.186812	-3.186727	-5.311222
Zr	1.062274	-3.186727	-7.435708
Be	4.249085	0.000000	-4.248975
Be	6.373623	-2.124486	-6.373460
O	5.224134	0.974986	-5.223961
O	5.398574	-1.149509	-7.348447
O	7.348672	-1.149509	-5.398484
O	3.099596	1.149509	-7.348447
O	7.523122	3.273995	-5.223961
O	7.523122	0.974986	-7.522969
O	5.224134	3.273995	-7.522969
O	9.647660	1.149509	-5.398484
Zr	3.186811	-1.062248	-7.435708
Zr	9.560445	-1.062248	-5.311222
Zr	7.435897	1.062248	-5.311222
Zr	5.311359	1.062248	-7.435708
