40

O	0.000000	2.109351	2.109351
O	2.109351	0.000000	2.109351
O	2.109351	2.109351	0.000000
Pb	2.109351	2.109351	2.109351
V	0.000000	0.000000	0.000000
O	0.000000	2.109351	6.328053
O	2.109351	0.000000	6.328053
O	2.109351	2.109351	4.218702
Pb	2.109351	2.109351	6.328053
V	0.000000	0.000000	4.218702
O	0.000000	6.328053	2.109351
O	2.109351	4.218702	2.109351
O	2.109351	6.328053	0.000000
Pb	2.109351	6.328053	2.109351
V	0.000000	4.218702	0.000000
O	0.000000	6.328053	6.328053
O	2.109351	4.218702	6.328053
O	2.109351	6.328053	4.218702
Pb	2.109351	6.328053	6.328053
V	0.000000	4.218702	4.218702
O	4.218702	2.109351	2.109351
O	6.328053	0.000000	2.109351
O	6.328053	2.109351	0.000000
Pb	6.328053	2.109351	2.109351
V	4.218702	0.000000	0.000000
O	4.218702	2.109351	6.328053
O	6.328053	0.000000	6.328053
O	6.328053	2.109351	4.218702
Pb	6.328053	2.109351	6.328053
V	4.218702	0.000000	4.218702
O	4.218702	6.328053	2.109351
O	6.328053	4.218702	2.109351
O	6.328053	6.328053	0.000000
Pb	6.328053	6.328053	2.109351
V	4.218702	4.218702	0.000000
O	4.218702	6.328053	6.328053
O	6.328053	4.218702	6.328053
O	6.328053	6.328053	4.218702
Pb	6.328053	6.328053	6.328053
V	4.218702	4.218702	4.218702
