112

O	3.916457	-0.963851	-0.963851
O	-0.964041	0.963851	-3.917871
O	0.964041	-0.963851	-3.917871
O	1.476203	1.477005	-1.477005
O	5.844539	0.963851	-0.963851
O	1.476203	3.404707	-3.404707
O	3.404295	3.404707	-1.477005
O	3.404295	1.477005	-3.404707
Rb	0.000000	0.000000	0.000000
Rb	2.440254	-2.440856	-2.440856
Sn	-1.220122	-1.220433	-3.661289
Sn	6.100620	-1.220433	-1.220433
Sn	1.220122	1.220433	-3.661289
Sn	3.660376	1.220433	-1.220433
O	8.796955	3.917867	-0.963851
O	3.916457	5.845570	-3.917871
O	5.844540	3.917867	-3.917871
O	6.356701	6.358723	-1.477005
O	10.725038	5.845570	-0.963851
O	6.356701	8.286426	-3.404707
O	8.284794	8.286426	-1.477005
O	8.284794	6.358724	-3.404707
Rb	4.880498	4.881719	0.000000
Rb	7.320752	2.440863	-2.440856
Sn	3.660376	3.661286	-3.661289
Sn	10.981118	3.661286	-1.220433
Sn	6.100620	6.102152	-3.661289
Sn	8.540874	6.102152	-1.220433
O	-0.964042	-0.963851	-5.845570
O	-5.844540	0.963851	-8.799589
O	-3.916457	-0.963851	-8.799589
O	-3.404296	1.477005	-6.358724
O	0.964041	0.963851	-5.845570
O	-3.404296	3.404707	-8.286426
O	-1.476203	3.404707	-6.358724
O	-1.476203	1.477005	-8.286426
Rb	-4.880498	0.000000	-4.881719
Rb	-2.440244	-2.440856	-7.322575
Sn	-6.100620	-1.220433	-8.543008
Sn	1.220122	-1.220433	-6.102152
Sn	-3.660376	1.220433	-8.543008
Sn	-1.220122	1.220433	-6.102152
O	3.916457	3.917867	-5.845570
O	-0.964041	5.845570	-8.799589
O	0.964041	3.917867	-8.799589
O	1.476203	6.358723	-6.358724
O	5.844539	5.845570	-5.845570
O	1.476203	8.286426	-8.286426
O	3.404295	8.286426	-6.358724
O	3.404295	6.358724	-8.286426
Rb	0.000000	4.881719	-4.881719
Rb	2.440254	2.440863	-7.322575
Sn	-1.220122	3.661286	-8.543008
Sn	6.100620	3.661286	-6.102152
Sn	1.220122	6.102152	-8.543008
Sn	3.660376	6.102152	-6.102152
O	8.796955	-5.845570	-0.963851
O	3.916457	-3.917867	-3.917871
O	5.844540	-5.845570	-3.917871
O	6.356701	-3.404714	-1.477005
O	10.725038	-3.917867	-0.963851
O	6.356701	-1.477011	-3.404707
O	8.284794	-1.477011	-1.477005
O	8.284794	-3.404714	-3.404707
Rb	4.880498	-4.881719	0.000000
Rb	7.320752	-7.322575	-2.440856
Sn	3.660376	-6.102152	-3.661289
Sn	10.981118	-6.102152	-1.220433
Sn	6.100620	-3.661286	-3.661289
Sn	8.540874	-3.661286	-1.220433
O	13.677453	-0.963851	-0.963851
O	8.796955	0.963851	-3.917871
O	10.725038	-0.963851	-3.917871
O	11.237199	1.477005	-1.477005
O	15.605536	0.963851	-0.963851
O	11.237199	3.404707	-3.404707
O	13.165292	3.404707	-1.477005
O	13.165292	1.477005	-3.404707
Rb	9.760996	0.000000	0.000000
Rb	12.201250	-2.440856	-2.440856
Sn	8.540874	-1.220433	-3.661289
Sn	15.861616	-1.220433	-1.220433
Sn	10.981118	1.220433	-3.661289
Sn	13.421372	1.220433	-1.220433
O	3.916457	-5.845570	-5.845570
O	-0.964041	-3.917867	-8.799589
O	0.964041	-5.845570	-8.799589
O	1.476203	-3.404714	-6.358724
O	5.844539	-3.917867	-5.845570
O	1.476203	-1.477011	-8.286426
O	3.404295	-1.477011	-6.358724
O	3.404295	-3.404714	-8.286426
Rb	0.000000	-4.881719	-4.881719
Rb	2.440254	-7.322575	-7.322575
Sn	-1.220122	-6.102152	-8.543008
Sn	6.100620	-6.102152	-6.102152
Sn	1.220122	-3.661286	-8.543008
Sn	3.660376	-3.661286	-6.102152
O	8.796955	-0.963851	-5.845570
O	3.916457	0.963851	-8.799589
O	5.844540	-0.963851	-8.799589
O	6.356701	1.477005	-6.358724
O	10.725038	0.963851	-5.845570
O	6.356701	3.404707	-8.286426
O	8.284794	3.404707	-6.358724
O	8.284794	1.477005	-8.286426
Rb	4.880498	0.000000	-4.881719
Rb	7.320752	-2.440856	-7.322575
Sn	3.660376	-1.220433	-8.543008
Sn	10.981118	-1.220433	-6.102152
Sn	6.100620	1.220433	-8.543008
Sn	8.540874	1.220433	-6.102152
