40

Mn	0.000000	0.000000	0.000000
O	2.082723	2.082723	0.000000
O	0.000000	2.082723	2.082723
O	2.082723	0.000000	2.082723
Pb	2.082723	2.082723	2.082723
Mn	0.000000	0.000000	4.165453
O	2.082723	2.082723	4.165453
O	0.000000	2.082723	6.248176
O	2.082723	0.000000	6.248176
Pb	2.082723	2.082723	6.248176
Mn	0.000000	4.165453	0.000000
O	2.082723	6.248176	0.000000
O	0.000000	6.248176	2.082723
O	2.082723	4.165453	2.082723
Pb	2.082723	6.248176	2.082723
Mn	0.000000	4.165453	4.165453
O	2.082723	6.248176	4.165453
O	0.000000	6.248176	6.248176
O	2.082723	4.165453	6.248176
Pb	2.082723	6.248176	6.248176
Mn	4.165453	0.000000	0.000000
O	6.248176	2.082723	0.000000
O	4.165453	2.082723	2.082723
O	6.248176	0.000000	2.082723
Pb	6.248176	2.082723	2.082723
Mn	4.165453	0.000000	4.165453
O	6.248176	2.082723	4.165453
O	4.165453	2.082723	6.248176
O	6.248176	0.000000	6.248176
Pb	6.248176	2.082723	6.248176
Mn	4.165453	4.165453	0.000000
O	6.248176	6.248176	0.000000
O	4.165453	6.248176	2.082723
O	6.248176	4.165453	2.082723
Pb	6.248176	6.248176	2.082723
Mn	4.165453	4.165453	4.165453
O	6.248176	6.248176	4.165453
O	4.165453	6.248176	6.248176
O	6.248176	4.165453	6.248176
Pb	6.248176	6.248176	6.248176
