112

Ho	0.000000	0.000000	0.000000
Ho	2.519671	-2.520023	-2.520023
O	3.773028	-1.266036	-1.266036
O	-1.266315	1.266036	-3.774011
O	1.266315	-1.266036	-3.774011
O	1.253356	1.253988	-1.253988
O	6.305657	1.266036	-1.266036
O	1.253356	3.786059	-3.786059
O	3.785986	3.786059	-1.253988
O	3.785986	1.253988	-3.786059
Sr	-1.259836	-1.260012	-3.780035
Sr	3.779507	1.260012	-1.260012
Sr	6.299178	-1.260012	-1.260012
Sr	1.259836	1.260012	-3.780035
Ho	5.039342	5.040047	0.000000
Ho	7.559014	2.520023	-2.520023
O	8.812370	3.774011	-1.266036
O	3.773028	6.306082	-3.774011
O	6.305657	3.774011	-3.774011
O	6.292699	6.294034	-1.253988
O	11.345000	6.306082	-1.266036
O	6.292699	8.826106	-3.786059
O	8.825329	8.826106	-1.253988
O	8.825328	6.294034	-3.786059
Sr	3.779507	3.780035	-3.780035
Sr	8.818849	6.300058	-1.260012
Sr	11.338521	3.780035	-1.260012
Sr	6.299178	6.300058	-3.780035
Ho	-5.039342	0.000000	-5.040047
Ho	-2.519671	-2.520023	-7.560070
O	-1.266315	-1.266036	-6.306082
O	-6.305657	1.266036	-8.814057
O	-3.773028	-1.266036	-8.814057
O	-3.785986	1.253988	-6.294034
O	1.266315	1.266036	-6.306082
O	-3.785986	3.786059	-8.826106
O	-1.253356	3.786059	-6.294034
O	-1.253356	1.253988	-8.826106
Sr	-6.299178	-1.260012	-8.820081
Sr	-1.259836	1.260012	-6.300058
Sr	1.259836	-1.260012	-6.300058
Sr	-3.779507	1.260012	-8.820081
Ho	0.000000	5.040047	-5.040047
Ho	2.519671	2.520023	-7.560070
O	3.773028	3.774011	-6.306082
O	-1.266315	6.306082	-8.814057
O	1.266315	3.774011	-8.814057
O	1.253356	6.294034	-6.294034
O	6.305657	6.306082	-6.306082
O	1.253356	8.826106	-8.826106
O	3.785986	8.826106	-6.294034
O	3.785986	6.294034	-8.826106
Sr	-1.259836	3.780035	-8.820081
Sr	3.779507	6.300058	-6.300058
Sr	6.299178	3.780035	-6.300058
Sr	1.259836	6.300058	-8.820081
Ho	5.039342	-5.040047	0.000000
Ho	7.559014	-7.560070	-2.520023
O	8.812370	-6.306082	-1.266036
O	3.773028	-3.774011	-3.774011
O	6.305657	-6.306082	-3.774011
O	6.292699	-3.786059	-1.253988
O	11.345000	-3.774011	-1.266036
O	6.292699	-1.253988	-3.786059
O	8.825329	-1.253988	-1.253988
O	8.825328	-3.786059	-3.786059
Sr	3.779507	-6.300058	-3.780035
Sr	8.818849	-3.780035	-1.260012
Sr	11.338521	-6.300058	-1.260012
Sr	6.299178	-3.780035	-3.780035
Ho	10.078685	0.000000	0.000000
Ho	12.598356	-2.520023	-2.520023
O	13.851713	-1.266036	-1.266036
O	8.812370	1.266036	-3.774011
O	11.345000	-1.266036	-3.774011
O	11.332041	1.253988	-1.253988
O	16.384342	1.266036	-1.266036
O	11.332041	3.786059	-3.786059
O	13.864671	3.786059	-1.253988
O	13.864671	1.253988	-3.786059
Sr	8.818849	-1.260012	-3.780035
Sr	13.858192	1.260012	-1.260012
Sr	16.377863	-1.260012	-1.260012
Sr	11.338521	1.260012	-3.780035
Ho	0.000000	-5.040047	-5.040047
Ho	2.519671	-7.560070	-7.560070
O	3.773028	-6.306082	-6.306082
O	-1.266315	-3.774011	-8.814057
O	1.266315	-6.306082	-8.814057
O	1.253356	-3.786059	-6.294034
O	6.305657	-3.774011	-6.306082
O	1.253356	-1.253988	-8.826106
O	3.785986	-1.253988	-6.294034
O	3.785986	-3.786059	-8.826106
Sr	-1.259836	-6.300058	-8.820081
Sr	3.779507	-3.780035	-6.300058
Sr	6.299178	-6.300058	-6.300058
Sr	1.259836	-3.780035	-8.820081
Ho	5.039342	0.000000	-5.040047
Ho	7.559014	-2.520023	-7.560070
O	8.812370	-1.266036	-6.306082
O	3.773028	1.266036	-8.814057
O	6.305657	-1.266036	-8.814057
O	6.292699	1.253988	-6.294034
O	11.345000	1.266036	-6.306082
O	6.292699	3.786059	-8.826106
O	8.825329	3.786059	-6.294034
O	8.825328	1.253988	-8.826106
Sr	3.779507	-1.260012	-8.820081
Sr	8.818849	1.260012	-6.300058
Sr	11.338521	-1.260012	-6.300058
Sr	6.299178	1.260012	-8.820081
