112

Ge	0.000000	0.000000	0.000000
Ge	2.414316	-2.415333	-2.415333
O	3.670737	-1.158024	-1.158024
O	-1.157896	1.158024	-3.672641
O	1.157896	-1.158024	-3.672641
O	1.256420	1.257309	-1.257309
O	5.986529	1.158024	-1.158024
O	1.256420	3.573356	-3.573356
O	3.572212	3.573356	-1.257309
O	3.572212	1.257309	-3.573356
Sb	-1.207158	-1.207666	-3.622999
Sb	3.621475	1.207666	-1.207666
Sb	6.035791	-1.207666	-1.207666
Sb	1.207158	1.207666	-3.622999
Ge	4.828633	4.830665	0.000000
Ge	7.242949	2.415333	-2.415333
O	8.499369	3.672641	-1.158024
O	3.670737	5.988689	-3.672641
O	5.986529	3.672641	-3.672641
O	6.085053	6.087974	-1.257309
O	10.815162	5.988689	-1.158024
O	6.085053	8.404022	-3.573356
O	8.400845	8.404022	-1.257309
O	8.400845	6.087974	-3.573356
Sb	3.621475	3.622999	-3.622999
Sb	8.450107	6.038331	-1.207666
Sb	10.864424	3.622999	-1.207666
Sb	6.035791	6.038331	-3.622999
Ge	-4.828633	0.000000	-4.830665
Ge	-2.414316	-2.415333	-7.245998
O	-1.157896	-1.158024	-5.988689
O	-5.986529	1.158024	-8.503306
O	-3.670737	-1.158024	-8.503306
O	-3.572212	1.257309	-6.087974
O	1.157896	1.158024	-5.988689
O	-3.572212	3.573356	-8.404022
O	-1.256420	3.573356	-6.087974
O	-1.256420	1.257309	-8.404022
Sb	-6.035791	-1.207666	-8.453664
Sb	-1.207158	1.207666	-6.038331
Sb	1.207158	-1.207666	-6.038331
Sb	-3.621475	1.207666	-8.453664
Ge	0.000000	4.830665	-4.830665
Ge	2.414316	2.415333	-7.245998
O	3.670737	3.672641	-5.988689
O	-1.157896	5.988689	-8.503306
O	1.157896	3.672641	-8.503306
O	1.256420	6.087974	-6.087974
O	5.986529	5.988689	-5.988689
O	1.256420	8.404022	-8.404022
O	3.572212	8.404022	-6.087974
O	3.572212	6.087974	-8.404022
Sb	-1.207158	3.622999	-8.453664
Sb	3.621475	6.038331	-6.038331
Sb	6.035791	3.622999	-6.038331
Sb	1.207158	6.038331	-8.453664
Ge	4.828633	-4.830665	0.000000
Ge	7.242949	-7.245998	-2.415333
O	8.499369	-5.988689	-1.158024
O	3.670737	-3.672641	-3.672641
O	5.986529	-5.988689	-3.672641
O	6.085053	-3.573356	-1.257309
O	10.815162	-3.672641	-1.158024
O	6.085053	-1.257309	-3.573356
O	8.400845	-1.257309	-1.257309
O	8.400845	-3.573356	-3.573356
Sb	3.621475	-6.038331	-3.622999
Sb	8.450107	-3.622999	-1.207666
Sb	10.864424	-6.038331	-1.207666
Sb	6.035791	-3.622999	-3.622999
Ge	9.657265	0.000000	0.000000
Ge	12.071582	-2.415333	-2.415333
O	13.328002	-1.158024	-1.158024
O	8.499369	1.158024	-3.672641
O	10.815162	-1.158024	-3.672641
O	10.913686	1.257309	-1.257309
O	15.643794	1.158024	-1.158024
O	10.913686	3.573356	-3.573356
O	13.229478	3.573356	-1.257309
O	13.229478	1.257309	-3.573356
Sb	8.450107	-1.207666	-3.622999
Sb	13.278740	1.207666	-1.207666
Sb	15.693056	-1.207666	-1.207666
Sb	10.864424	1.207666	-3.622999
Ge	0.000000	-4.830665	-4.830665
Ge	2.414316	-7.245998	-7.245998
O	3.670737	-5.988689	-5.988689
O	-1.157896	-3.672641	-8.503306
O	1.157896	-5.988689	-8.503306
O	1.256420	-3.573356	-6.087974
O	5.986529	-3.672641	-5.988689
O	1.256420	-1.257309	-8.404022
O	3.572212	-1.257309	-6.087974
O	3.572212	-3.573356	-8.404022
Sb	-1.207158	-6.038331	-8.453664
Sb	3.621475	-3.622999	-6.038331
Sb	6.035791	-6.038331	-6.038331
Sb	1.207158	-3.622999	-8.453664
Ge	4.828633	0.000000	-4.830665
Ge	7.242949	-2.415333	-7.245998
O	8.499369	-1.158024	-5.988689
O	3.670737	1.158024	-8.503306
O	5.986529	-1.158024	-8.503306
O	6.085053	1.257309	-6.087974
O	10.815162	1.158024	-5.988689
O	6.085053	3.573356	-8.404022
O	8.400845	3.573356	-6.087974
O	8.400845	1.257309	-8.404022
Sb	3.621475	-1.207666	-8.453664
Sb	8.450107	1.207666	-6.038331
Sb	10.864424	-1.207666	-6.038331
Sb	6.035791	1.207666	-8.453664
