40

Br	1.977435	1.977435	1.977435
Ni	0.000000	0.000000	0.000000
O	0.000000	1.977435	1.977435
O	1.977435	0.000000	1.977435
O	1.977435	1.977435	0.000000
Br	1.977435	1.977435	5.932305
Ni	0.000000	0.000000	3.954870
O	0.000000	1.977435	5.932305
O	1.977435	0.000000	5.932305
O	1.977435	1.977435	3.954870
Br	1.977435	5.932305	1.977435
Ni	0.000000	3.954870	0.000000
O	0.000000	5.932305	1.977435
O	1.977435	3.954870	1.977435
O	1.977435	5.932305	0.000000
Br	1.977435	5.932305	5.932305
Ni	0.000000	3.954870	3.954870
O	0.000000	5.932305	5.932305
O	1.977435	3.954870	5.932305
O	1.977435	5.932305	3.954870
Br	5.932305	1.977435	1.977435
Ni	3.954870	0.000000	0.000000
O	3.954870	1.977435	1.977435
O	5.932305	0.000000	1.977435
O	5.932305	1.977435	0.000000
Br	5.932305	1.977435	5.932305
Ni	3.954870	0.000000	3.954870
O	3.954870	1.977435	5.932305
O	5.932305	0.000000	5.932305
O	5.932305	1.977435	3.954870
Br	5.932305	5.932305	1.977435
Ni	3.954870	3.954870	0.000000
O	3.954870	5.932305	1.977435
O	5.932305	3.954870	1.977435
O	5.932305	5.932305	0.000000
Br	5.932305	5.932305	5.932305
Ni	3.954870	3.954870	3.954870
O	3.954870	5.932305	5.932305
O	5.932305	3.954870	5.932305
O	5.932305	5.932305	3.954870
