40

Ba	2.318929	2.318929	2.318929
O	0.000000	2.318929	2.318929
O	2.318929	0.000000	2.318929
O	2.318929	2.318929	0.000000
Si	0.000000	0.000000	0.000000
Ba	2.318929	2.318929	6.956786
O	0.000000	2.318929	6.956786
O	2.318929	0.000000	6.956786
O	2.318929	2.318929	4.637857
Si	0.000000	0.000000	4.637857
Ba	2.318929	6.956786	2.318929
O	0.000000	6.956786	2.318929
O	2.318929	4.637857	2.318929
O	2.318929	6.956786	0.000000
Si	0.000000	4.637857	0.000000
Ba	2.318929	6.956786	6.956786
O	0.000000	6.956786	6.956786
O	2.318929	4.637857	6.956786
O	2.318929	6.956786	4.637857
Si	0.000000	4.637857	4.637857
Ba	6.956786	2.318929	2.318929
O	4.637857	2.318929	2.318929
O	6.956786	0.000000	2.318929
O	6.956786	2.318929	0.000000
Si	4.637857	0.000000	0.000000
Ba	6.956786	2.318929	6.956786
O	4.637857	2.318929	6.956786
O	6.956786	0.000000	6.956786
O	6.956786	2.318929	4.637857
Si	4.637857	0.000000	4.637857
Ba	6.956786	6.956786	2.318929
O	4.637857	6.956786	2.318929
O	6.956786	4.637857	2.318929
O	6.956786	6.956786	0.000000
Si	4.637857	4.637857	0.000000
Ba	6.956786	6.956786	6.956786
O	4.637857	6.956786	6.956786
O	6.956786	4.637857	6.956786
O	6.956786	6.956786	4.637857
Si	4.637857	4.637857	4.637857
