40

As	1.976824	1.976824	1.976824
O	0.000000	1.976824	1.976824
O	1.976824	0.000000	1.976824
O	1.976824	1.976824	0.000000
Sc	0.000000	0.000000	0.000000
As	1.976824	1.976824	5.930471
O	0.000000	1.976824	5.930471
O	1.976824	0.000000	5.930471
O	1.976824	1.976824	3.953647
Sc	0.000000	0.000000	3.953647
As	1.976824	5.930471	1.976824
O	0.000000	5.930471	1.976824
O	1.976824	3.953647	1.976824
O	1.976824	5.930471	0.000000
Sc	0.000000	3.953647	0.000000
As	1.976824	5.930471	5.930471
O	0.000000	5.930471	5.930471
O	1.976824	3.953647	5.930471
O	1.976824	5.930471	3.953647
Sc	0.000000	3.953647	3.953647
As	5.930471	1.976824	1.976824
O	3.953647	1.976824	1.976824
O	5.930471	0.000000	1.976824
O	5.930471	1.976824	0.000000
Sc	3.953647	0.000000	0.000000
As	5.930471	1.976824	5.930471
O	3.953647	1.976824	5.930471
O	5.930471	0.000000	5.930471
O	5.930471	1.976824	3.953647
Sc	3.953647	0.000000	3.953647
As	5.930471	5.930471	1.976824
O	3.953647	5.930471	1.976824
O	5.930471	3.953647	1.976824
O	5.930471	5.930471	0.000000
Sc	3.953647	3.953647	0.000000
As	5.930471	5.930471	5.930471
O	3.953647	5.930471	5.930471
O	5.930471	3.953647	5.930471
O	5.930471	5.930471	3.953647
Sc	3.953647	3.953647	3.953647
