40

O	0.000000	1.845570	1.845570
O	1.845570	0.000000	1.845570
O	1.845570	1.845570	0.000000
P	1.845570	1.845570	1.845570
Ru	0.000000	0.000000	0.000000
O	0.000000	1.845570	5.536711
O	1.845570	0.000000	5.536711
O	1.845570	1.845570	3.691140
P	1.845570	1.845570	5.536711
Ru	0.000000	0.000000	3.691140
O	0.000000	5.536711	1.845570
O	1.845570	3.691140	1.845570
O	1.845570	5.536711	0.000000
P	1.845570	5.536711	1.845570
Ru	0.000000	3.691140	0.000000
O	0.000000	5.536711	5.536711
O	1.845570	3.691140	5.536711
O	1.845570	5.536711	3.691140
P	1.845570	5.536711	5.536711
Ru	0.000000	3.691140	3.691140
O	3.691140	1.845570	1.845570
O	5.536711	0.000000	1.845570
O	5.536711	1.845570	0.000000
P	5.536711	1.845570	1.845570
Ru	3.691140	0.000000	0.000000
O	3.691140	1.845570	5.536711
O	5.536711	0.000000	5.536711
O	5.536711	1.845570	3.691140
P	5.536711	1.845570	5.536711
Ru	3.691140	0.000000	3.691140
O	3.691140	5.536711	1.845570
O	5.536711	3.691140	1.845570
O	5.536711	5.536711	0.000000
P	5.536711	5.536711	1.845570
Ru	3.691140	3.691140	0.000000
O	3.691140	5.536711	5.536711
O	5.536711	3.691140	5.536711
O	5.536711	5.536711	3.691140
P	5.536711	5.536711	5.536711
Ru	3.691140	3.691140	3.691140
