40

Nb	0.000000	0.000000	0.000000
O	2.066487	2.066487	0.000000
O	2.066487	0.000000	2.066487
O	0.000000	2.066487	2.066487
Yb	2.066487	2.066487	2.066487
Nb	0.000000	0.000000	4.132974
O	2.066487	2.066487	4.132974
O	2.066487	0.000000	6.199461
O	0.000000	2.066487	6.199461
Yb	2.066487	2.066487	6.199461
Nb	0.000000	4.132974	0.000000
O	2.066487	6.199461	0.000000
O	2.066487	4.132974	2.066487
O	0.000000	6.199461	2.066487
Yb	2.066487	6.199461	2.066487
Nb	0.000000	4.132974	4.132974
O	2.066487	6.199461	4.132974
O	2.066487	4.132974	6.199461
O	0.000000	6.199461	6.199461
Yb	2.066487	6.199461	6.199461
Nb	4.132974	0.000000	0.000000
O	6.199461	2.066487	0.000000
O	6.199461	0.000000	2.066487
O	4.132974	2.066487	2.066487
Yb	6.199461	2.066487	2.066487
Nb	4.132974	0.000000	4.132974
O	6.199461	2.066487	4.132974
O	6.199461	0.000000	6.199461
O	4.132974	2.066487	6.199461
Yb	6.199461	2.066487	6.199461
Nb	4.132974	4.132974	0.000000
O	6.199461	6.199461	0.000000
O	6.199461	4.132974	2.066487
O	4.132974	6.199461	2.066487
Yb	6.199461	6.199461	2.066487
Nb	4.132974	4.132974	4.132974
O	6.199461	6.199461	4.132974
O	6.199461	4.132974	6.199461
O	4.132974	6.199461	6.199461
Yb	6.199461	6.199461	6.199461
