40

Er	2.124480	2.124480	2.124480
O	2.124480	2.124480	0.000000
O	0.000000	2.124480	2.124480
O	2.124480	0.000000	2.124480
Sb	0.000000	0.000000	0.000000
Er	2.124480	2.124480	6.373442
O	2.124480	2.124480	4.248962
O	0.000000	2.124480	6.373442
O	2.124480	0.000000	6.373442
Sb	0.000000	0.000000	4.248962
Er	2.124480	6.373442	2.124480
O	2.124480	6.373442	0.000000
O	0.000000	6.373442	2.124480
O	2.124480	4.248962	2.124480
Sb	0.000000	4.248962	0.000000
Er	2.124480	6.373442	6.373442
O	2.124480	6.373442	4.248962
O	0.000000	6.373442	6.373442
O	2.124480	4.248962	6.373442
Sb	0.000000	4.248962	4.248962
Er	6.373442	2.124480	2.124480
O	6.373442	2.124480	0.000000
O	4.248962	2.124480	2.124480
O	6.373442	0.000000	2.124480
Sb	4.248962	0.000000	0.000000
Er	6.373442	2.124480	6.373442
O	6.373442	2.124480	4.248962
O	4.248962	2.124480	6.373442
O	6.373442	0.000000	6.373442
Sb	4.248962	0.000000	4.248962
Er	6.373442	6.373442	2.124480
O	6.373442	6.373442	0.000000
O	4.248962	6.373442	2.124480
O	6.373442	4.248962	2.124480
Sb	4.248962	4.248962	0.000000
Er	6.373442	6.373442	6.373442
O	6.373442	6.373442	4.248962
O	4.248962	6.373442	6.373442
O	6.373442	4.248962	6.373442
Sb	4.248962	4.248962	4.248962
