40

O	0.000000	1.993719	1.993719
O	1.993719	0.000000	1.993719
O	1.993719	1.993719	0.000000
Re	1.993719	1.993719	1.993719
Si	0.000000	0.000000	0.000000
O	0.000000	1.993719	5.981156
O	1.993719	0.000000	5.981156
O	1.993719	1.993719	3.987437
Re	1.993719	1.993719	5.981156
Si	0.000000	0.000000	3.987437
O	0.000000	5.981156	1.993719
O	1.993719	3.987437	1.993719
O	1.993719	5.981156	0.000000
Re	1.993719	5.981156	1.993719
Si	0.000000	3.987437	0.000000
O	0.000000	5.981156	5.981156
O	1.993719	3.987437	5.981156
O	1.993719	5.981156	3.987437
Re	1.993719	5.981156	5.981156
Si	0.000000	3.987437	3.987437
O	3.987437	1.993719	1.993719
O	5.981156	0.000000	1.993719
O	5.981156	1.993719	0.000000
Re	5.981156	1.993719	1.993719
Si	3.987437	0.000000	0.000000
O	3.987437	1.993719	5.981156
O	5.981156	0.000000	5.981156
O	5.981156	1.993719	3.987437
Re	5.981156	1.993719	5.981156
Si	3.987437	0.000000	3.987437
O	3.987437	5.981156	1.993719
O	5.981156	3.987437	1.993719
O	5.981156	5.981156	0.000000
Re	5.981156	5.981156	1.993719
Si	3.987437	3.987437	0.000000
O	3.987437	5.981156	5.981156
O	5.981156	3.987437	5.981156
O	5.981156	5.981156	3.987437
Re	5.981156	5.981156	5.981156
Si	3.987437	3.987437	3.987437
