40

O	2.282291	2.282291	0.000000
O	0.000000	2.282291	2.282291
O	2.282291	0.000000	2.282291
Pb	0.000000	0.000000	0.000000
Th	2.282291	2.282291	2.282291
O	2.282291	2.282291	4.564574
O	0.000000	2.282291	6.846865
O	2.282291	0.000000	6.846865
Pb	0.000000	0.000000	4.564574
Th	2.282291	2.282291	6.846865
O	2.282291	6.846865	0.000000
O	0.000000	6.846865	2.282291
O	2.282291	4.564574	2.282291
Pb	0.000000	4.564574	0.000000
Th	2.282291	6.846865	2.282291
O	2.282291	6.846865	4.564574
O	0.000000	6.846865	6.846865
O	2.282291	4.564574	6.846865
Pb	0.000000	4.564574	4.564574
Th	2.282291	6.846865	6.846865
O	6.846865	2.282291	0.000000
O	4.564574	2.282291	2.282291
O	6.846865	0.000000	2.282291
Pb	4.564574	0.000000	0.000000
Th	6.846865	2.282291	2.282291
O	6.846865	2.282291	4.564574
O	4.564574	2.282291	6.846865
O	6.846865	0.000000	6.846865
Pb	4.564574	0.000000	4.564574
Th	6.846865	2.282291	6.846865
O	6.846865	6.846865	0.000000
O	4.564574	6.846865	2.282291
O	6.846865	4.564574	2.282291
Pb	4.564574	4.564574	0.000000
Th	6.846865	6.846865	2.282291
O	6.846865	6.846865	4.564574
O	4.564574	6.846865	6.846865
O	6.846865	4.564574	6.846865
Pb	4.564574	4.564574	4.564574
Th	6.846865	6.846865	6.846865
