112

O	-0.874210	0.874048	-3.738662
O	3.737297	-0.874048	-0.874048
O	0.874210	-0.874048	-3.738662
O	1.431548	1.432307	-1.432307
O	5.485707	0.874048	-0.874048
O	1.431548	3.180393	-3.180393
O	3.179958	3.180393	-1.432307
O	3.179958	1.432307	-3.180393
Rb	0.000000	0.000000	0.000000
Rb	2.305748	-2.306355	-2.306355
Ru	-1.152879	-1.153177	-3.459532
Ru	5.764376	-1.153177	-1.153177
Ru	3.458628	1.153177	-1.153177
Ru	1.152879	1.153177	-3.459532
O	3.737291	5.486756	-3.738662
O	8.348798	3.738659	-0.874048
O	5.485711	3.738659	-3.738662
O	6.043049	6.045014	-1.432307
O	10.097208	5.486756	-0.874048
O	6.043049	7.793101	-3.180393
O	7.791459	7.793101	-1.432307
O	7.791459	6.045014	-3.180393
Rb	4.611501	4.612708	0.000000
Rb	6.917249	2.306353	-2.306355
Ru	3.458622	3.459530	-3.459532
Ru	10.375877	3.459530	-1.153177
Ru	8.070129	5.765885	-1.153177
Ru	5.764380	5.765885	-3.459532
O	-5.485711	0.874048	-8.351369
O	-0.874204	-0.874048	-5.486756
O	-3.737291	-0.874048	-8.351369
O	-3.179953	1.432307	-6.045014
O	0.874206	0.874048	-5.486756
O	-3.179953	3.180393	-7.793101
O	-1.431543	3.180393	-6.045014
O	-1.431543	1.432307	-7.793101
Rb	-4.611501	0.000000	-4.612708
Rb	-2.305753	-2.306355	-6.919063
Ru	-5.764380	-1.153177	-8.072240
Ru	1.152875	-1.153177	-5.765885
Ru	-1.152873	1.153177	-5.765885
Ru	-3.458622	1.153177	-8.072240
O	-0.874210	5.486756	-8.351369
O	3.737297	3.738659	-5.486756
O	0.874210	3.738659	-8.351369
O	1.431548	6.045014	-6.045014
O	5.485707	5.486756	-5.486756
O	1.431548	7.793101	-7.793101
O	3.179958	7.793101	-6.045014
O	3.179958	6.045014	-7.793101
Rb	0.000000	4.612708	-4.612708
Rb	2.305748	2.306353	-6.919063
Ru	-1.152879	3.459530	-8.072240
Ru	5.764376	3.459530	-5.765885
Ru	3.458628	5.765885	-5.765885
Ru	1.152879	5.765885	-8.072240
O	3.737291	-3.738659	-3.738662
O	8.348798	-5.486756	-0.874048
O	5.485711	-5.486756	-3.738662
O	6.043049	-3.180401	-1.432307
O	10.097208	-3.738659	-0.874048
O	6.043049	-1.432314	-3.180393
O	7.791459	-1.432314	-1.432307
O	7.791459	-3.180401	-3.180393
Rb	4.611501	-4.612708	0.000000
Rb	6.917249	-6.919063	-2.306355
Ru	3.458622	-5.765885	-3.459532
Ru	10.375877	-5.765885	-1.153177
Ru	8.070129	-3.459530	-1.153177
Ru	5.764380	-3.459530	-3.459532
O	8.348792	0.874048	-3.738662
O	12.960299	-0.874048	-0.874048
O	10.097212	-0.874048	-3.738662
O	10.654550	1.432307	-1.432307
O	14.708709	0.874048	-0.874048
O	10.654550	3.180393	-3.180393
O	12.402960	3.180393	-1.432307
O	12.402960	1.432307	-3.180393
Rb	9.223002	0.000000	0.000000
Rb	11.528750	-2.306355	-2.306355
Ru	8.070123	-1.153177	-3.459532
Ru	14.987378	-1.153177	-1.153177
Ru	12.681630	1.153177	-1.153177
Ru	10.375881	1.153177	-3.459532
O	-0.874210	-3.738659	-8.351369
O	3.737297	-5.486756	-5.486756
O	0.874210	-5.486756	-8.351369
O	1.431548	-3.180401	-6.045014
O	5.485707	-3.738659	-5.486756
O	1.431548	-1.432314	-7.793101
O	3.179958	-1.432314	-6.045014
O	3.179958	-3.180401	-7.793101
Rb	0.000000	-4.612708	-4.612708
Rb	2.305748	-6.919063	-6.919063
Ru	-1.152879	-5.765885	-8.072240
Ru	5.764376	-5.765885	-5.765885
Ru	3.458628	-3.459530	-5.765885
Ru	1.152879	-3.459530	-8.072240
O	3.737291	0.874048	-8.351369
O	8.348798	-0.874048	-5.486756
O	5.485711	-0.874048	-8.351369
O	6.043049	1.432307	-6.045014
O	10.097208	0.874048	-5.486756
O	6.043049	3.180393	-7.793101
O	7.791459	3.180393	-6.045014
O	7.791459	1.432307	-7.793101
Rb	4.611501	0.000000	-4.612708
Rb	6.917249	-2.306355	-6.919063
Ru	3.458622	-1.153177	-8.072240
Ru	10.375877	-1.153177	-5.765885
Ru	8.070129	1.153177	-5.765885
Ru	5.764380	1.153177	-8.072240
