40

Ag	0.000000	0.000000	0.000000
Na	2.138568	2.138568	2.138568
O	0.000000	2.138568	2.138568
O	2.138568	0.000000	2.138568
O	2.138568	2.138568	0.000000
Ag	0.000000	0.000000	4.277136
Na	2.138568	2.138568	6.415704
O	0.000000	2.138568	6.415704
O	2.138568	0.000000	6.415704
O	2.138568	2.138568	4.277136
Ag	0.000000	4.277136	0.000000
Na	2.138568	6.415704	2.138568
O	0.000000	6.415704	2.138568
O	2.138568	4.277136	2.138568
O	2.138568	6.415704	0.000000
Ag	0.000000	4.277136	4.277136
Na	2.138568	6.415704	6.415704
O	0.000000	6.415704	6.415704
O	2.138568	4.277136	6.415704
O	2.138568	6.415704	4.277136
Ag	4.277136	0.000000	0.000000
Na	6.415704	2.138568	2.138568
O	4.277136	2.138568	2.138568
O	6.415704	0.000000	2.138568
O	6.415704	2.138568	0.000000
Ag	4.277136	0.000000	4.277136
Na	6.415704	2.138568	6.415704
O	4.277136	2.138568	6.415704
O	6.415704	0.000000	6.415704
O	6.415704	2.138568	4.277136
Ag	4.277136	4.277136	0.000000
Na	6.415704	6.415704	2.138568
O	4.277136	6.415704	2.138568
O	6.415704	4.277136	2.138568
O	6.415704	6.415704	0.000000
Ag	4.277136	4.277136	4.277136
Na	6.415704	6.415704	6.415704
O	4.277136	6.415704	6.415704
O	6.415704	4.277136	6.415704
O	6.415704	6.415704	4.277136
