112

Ni	-1.002442	-1.002442	-3.007327
Ni	3.007327	1.002442	-1.002442
Ni	5.012212	-1.002442	-1.002442
Ni	1.002442	1.002442	-3.007327
O	0.959822	0.959822	-0.959822
O	2.964707	-1.045062	-1.045062
O	-1.045062	1.045062	-2.964707
O	1.045062	-1.045062	-2.964707
O	3.049947	3.049947	-0.959822
O	0.959822	3.049947	-3.049947
O	3.049947	0.959822	-3.049947
O	5.054832	1.045062	-1.045062
Si	0.000000	0.000000	0.000000
Si	2.004885	-2.004885	-2.004885
Ni	3.007327	3.007327	-3.007327
Ni	7.017096	5.012212	-1.002442
Ni	9.021981	3.007327	-1.002442
Ni	5.012212	5.012212	-3.007327
O	4.969592	4.969592	-0.959822
O	6.974477	2.964707	-1.045062
O	2.964707	5.054832	-2.964707
O	5.054832	2.964707	-2.964707
O	7.059716	7.059716	-0.959822
O	4.969592	7.059716	-3.049947
O	7.059716	4.969592	-3.049947
O	9.064601	5.054832	-1.045062
Si	4.009769	4.009769	0.000000
Si	6.014654	2.004885	-2.004885
Ni	-5.012212	-1.002442	-7.017096
Ni	-1.002442	1.002442	-5.012212
Ni	1.002442	-1.002442	-5.012212
Ni	-3.007327	1.002442	-7.017096
O	-3.049947	0.959822	-4.969592
O	-1.045062	-1.045062	-5.054832
O	-5.054832	1.045062	-6.974477
O	-2.964707	-1.045062	-6.974477
O	-0.959822	3.049947	-4.969592
O	-3.049947	3.049947	-7.059716
O	-0.959822	0.959822	-7.059716
O	1.045062	1.045062	-5.054832
Si	-4.009769	0.000000	-4.009769
Si	-2.004885	-2.004885	-6.014654
Ni	-1.002442	3.007327	-7.017096
Ni	3.007327	5.012212	-5.012212
Ni	5.012212	3.007327	-5.012212
Ni	1.002442	5.012212	-7.017096
O	0.959822	4.969592	-4.969592
O	2.964707	2.964707	-5.054832
O	-1.045062	5.054832	-6.974477
O	1.045062	2.964707	-6.974477
O	3.049947	7.059716	-4.969592
O	0.959822	7.059716	-7.059716
O	3.049947	4.969592	-7.059716
O	5.054832	5.054832	-5.054832
Si	0.000000	4.009769	-4.009769
Si	2.004885	2.004885	-6.014654
Ni	3.007327	-5.012212	-3.007327
Ni	7.017096	-3.007327	-1.002442
Ni	9.021981	-5.012212	-1.002442
Ni	5.012212	-3.007327	-3.007327
O	4.969592	-3.049947	-0.959822
O	6.974477	-5.054832	-1.045062
O	2.964707	-2.964707	-2.964707
O	5.054832	-5.054832	-2.964707
O	7.059716	-0.959822	-0.959822
O	4.969592	-0.959822	-3.049947
O	7.059716	-3.049947	-3.049947
O	9.064601	-2.964707	-1.045062
Si	4.009769	-4.009769	0.000000
Si	6.014654	-6.014654	-2.004885
Ni	7.017096	-1.002442	-3.007327
Ni	11.026866	1.002442	-1.002442
Ni	13.031751	-1.002442	-1.002442
Ni	9.021981	1.002442	-3.007327
O	8.979361	0.959822	-0.959822
O	10.984246	-1.045062	-1.045062
O	6.974477	1.045062	-2.964707
O	9.064601	-1.045062	-2.964707
O	11.069486	3.049947	-0.959822
O	8.979361	3.049947	-3.049947
O	11.069486	0.959822	-3.049947
O	13.074371	1.045062	-1.045062
Si	8.019539	0.000000	0.000000
Si	10.024424	-2.004885	-2.004885
Ni	-1.002442	-5.012212	-7.017096
Ni	3.007327	-3.007327	-5.012212
Ni	5.012212	-5.012212	-5.012212
Ni	1.002442	-3.007327	-7.017096
O	0.959822	-3.049947	-4.969592
O	2.964707	-5.054832	-5.054832
O	-1.045062	-2.964707	-6.974477
O	1.045062	-5.054832	-6.974477
O	3.049947	-0.959822	-4.969592
O	0.959822	-0.959822	-7.059716
O	3.049947	-3.049947	-7.059716
O	5.054832	-2.964707	-5.054832
Si	0.000000	-4.009769	-4.009769
Si	2.004885	-6.014654	-6.014654
Ni	3.007327	-1.002442	-7.017096
Ni	7.017096	1.002442	-5.012212
Ni	9.021981	-1.002442	-5.012212
Ni	5.012212	1.002442	-7.017096
O	4.969592	0.959822	-4.969592
O	6.974477	-1.045062	-5.054832
O	2.964707	1.045062	-6.974477
O	5.054832	-1.045062	-6.974477
O	7.059716	3.049947	-4.969592
O	4.969592	3.049947	-7.059716
O	7.059716	0.959822	-7.059716
O	9.064601	1.045062	-5.054832
Si	4.009769	0.000000	-4.009769
Si	6.014654	-2.004885	-6.014654
