40

Cu	1.855422	1.855422	1.855422
O	1.855422	1.855422	0.000000
O	1.855422	0.000000	1.855422
O	0.000000	1.855422	1.855422
Tm	0.000000	0.000000	0.000000
Cu	1.855422	1.855422	5.566263
O	1.855422	1.855422	3.710841
O	1.855422	0.000000	5.566263
O	0.000000	1.855422	5.566263
Tm	0.000000	0.000000	3.710841
Cu	1.855422	5.566263	1.855422
O	1.855422	5.566263	0.000000
O	1.855422	3.710841	1.855422
O	0.000000	5.566263	1.855422
Tm	0.000000	3.710841	0.000000
Cu	1.855422	5.566263	5.566263
O	1.855422	5.566263	3.710841
O	1.855422	3.710841	5.566263
O	0.000000	5.566263	5.566263
Tm	0.000000	3.710841	3.710841
Cu	5.566263	1.855422	1.855422
O	5.566263	1.855422	0.000000
O	5.566263	0.000000	1.855422
O	3.710841	1.855422	1.855422
Tm	3.710841	0.000000	0.000000
Cu	5.566263	1.855422	5.566263
O	5.566263	1.855422	3.710841
O	5.566263	0.000000	5.566263
O	3.710841	1.855422	5.566263
Tm	3.710841	0.000000	3.710841
Cu	5.566263	5.566263	1.855422
O	5.566263	5.566263	0.000000
O	5.566263	3.710841	1.855422
O	3.710841	5.566263	1.855422
Tm	3.710841	3.710841	0.000000
Cu	5.566263	5.566263	5.566263
O	5.566263	5.566263	3.710841
O	5.566263	3.710841	5.566263
O	3.710841	5.566263	5.566263
Tm	3.710841	3.710841	3.710841
