40

Ni	1.888391	1.888391	1.888391
O	1.888391	1.888391	0.000000
O	0.000000	1.888391	1.888391
O	1.888391	0.000000	1.888391
Tl	0.000000	0.000000	0.000000
Ni	1.888391	1.888391	5.665174
O	1.888391	1.888391	3.776782
O	0.000000	1.888391	5.665174
O	1.888391	0.000000	5.665174
Tl	0.000000	0.000000	3.776782
Ni	1.888391	5.665174	1.888391
O	1.888391	5.665174	0.000000
O	0.000000	5.665174	1.888391
O	1.888391	3.776782	1.888391
Tl	0.000000	3.776782	0.000000
Ni	1.888391	5.665174	5.665174
O	1.888391	5.665174	3.776782
O	0.000000	5.665174	5.665174
O	1.888391	3.776782	5.665174
Tl	0.000000	3.776782	3.776782
Ni	5.665174	1.888391	1.888391
O	5.665174	1.888391	0.000000
O	3.776782	1.888391	1.888391
O	5.665174	0.000000	1.888391
Tl	3.776782	0.000000	0.000000
Ni	5.665174	1.888391	5.665174
O	5.665174	1.888391	3.776782
O	3.776782	1.888391	5.665174
O	5.665174	0.000000	5.665174
Tl	3.776782	0.000000	3.776782
Ni	5.665174	5.665174	1.888391
O	5.665174	5.665174	0.000000
O	3.776782	5.665174	1.888391
O	5.665174	3.776782	1.888391
Tl	3.776782	3.776782	0.000000
Ni	5.665174	5.665174	5.665174
O	5.665174	5.665174	3.776782
O	3.776782	5.665174	5.665174
O	5.665174	3.776782	5.665174
Tl	3.776782	3.776782	3.776782
