112

O	1.033311	-1.036678	-3.738250
O	3.756655	-1.036678	-1.036678
O	-1.033311	1.036678	-3.738250
O	1.361682	1.350791	-1.350791
O	5.823287	1.036678	-1.036678
O	3.428294	3.424137	-1.350791
O	3.428294	1.350791	-3.424137
O	1.361682	3.424137	-3.424137
Pu	0.000000	0.000000	0.000000
Pu	2.394983	-2.387459	-2.387459
Tm	-1.197502	-1.193730	-3.581199
Tm	5.987467	-1.193729	-1.193730
Tm	3.592484	1.193730	-1.193730
Tm	1.197502	1.193730	-3.581199
O	5.823286	3.738243	-3.738250
O	8.546630	3.738243	-1.036678
O	3.756665	5.811600	-3.738250
O	6.151658	6.125713	-1.350791
O	10.613262	5.811600	-1.036678
O	8.218269	8.199059	-1.350791
O	8.218269	6.125713	-3.424137
O	6.151658	8.199059	-3.424137
Pu	4.789976	4.774922	0.000000
Pu	7.184958	2.387463	-2.387459
Tm	3.592474	3.581192	-3.581199
Tm	10.777443	3.581192	-1.193730
Tm	8.382460	5.968651	-1.193730
Tm	5.987477	5.968651	-3.581199
O	-3.756665	-1.036678	-8.513172
O	-1.033321	-1.036678	-5.811600
O	-5.823286	1.036678	-8.513172
O	-3.428293	1.350791	-6.125713
O	1.033311	1.036678	-5.811600
O	-1.361682	3.424137	-6.125713
O	-1.361682	1.350791	-8.199059
O	-3.428293	3.424137	-8.199059
Pu	-4.789976	0.000000	-4.774922
Pu	-2.394993	-2.387459	-7.162381
Tm	-5.987477	-1.193730	-8.356120
Tm	1.197492	-1.193729	-5.968651
Tm	-1.197491	1.193730	-5.968651
Tm	-3.592474	1.193730	-8.356120
O	1.033311	3.738243	-8.513172
O	3.756655	3.738243	-5.811600
O	-1.033311	5.811600	-8.513172
O	1.361682	6.125713	-6.125713
O	5.823287	5.811600	-5.811600
O	3.428294	8.199059	-6.125713
O	3.428294	6.125713	-8.199059
O	1.361682	8.199059	-8.199059
Pu	0.000000	4.774922	-4.774922
Pu	2.394983	2.387463	-7.162381
Tm	-1.197502	3.581192	-8.356120
Tm	5.987467	3.581192	-5.968651
Tm	3.592484	5.968651	-5.968651
Tm	1.197502	5.968651	-8.356120
O	5.823286	-5.811600	-3.738250
O	8.546630	-5.811600	-1.036678
O	3.756665	-3.738243	-3.738250
O	6.151658	-3.424131	-1.350791
O	10.613262	-3.738243	-1.036678
O	8.218269	-1.350784	-1.350791
O	8.218269	-3.424130	-3.424137
O	6.151658	-1.350784	-3.424137
Pu	4.789976	-4.774922	0.000000
Pu	7.184958	-7.162381	-2.387459
Tm	3.592474	-5.968651	-3.581199
Tm	10.777443	-5.968651	-1.193730
Tm	8.382460	-3.581192	-1.193730
Tm	5.987477	-3.581192	-3.581199
O	10.613262	-1.036678	-3.738250
O	13.336606	-1.036678	-1.036678
O	8.546640	1.036678	-3.738250
O	10.941633	1.350791	-1.350791
O	15.403238	1.036678	-1.036678
O	13.008245	3.424137	-1.350791
O	13.008245	1.350791	-3.424137
O	10.941633	3.424137	-3.424137
Pu	9.579951	0.000000	0.000000
Pu	11.974934	-2.387459	-2.387459
Tm	8.382449	-1.193730	-3.581199
Tm	15.567418	-1.193729	-1.193730
Tm	13.172435	1.193730	-1.193730
Tm	10.777453	1.193730	-3.581199
O	1.033311	-5.811600	-8.513172
O	3.756655	-5.811600	-5.811600
O	-1.033311	-3.738243	-8.513172
O	1.361682	-3.424131	-6.125713
O	5.823287	-3.738243	-5.811600
O	3.428294	-1.350784	-6.125713
O	3.428294	-3.424130	-8.199059
O	1.361682	-1.350784	-8.199059
Pu	0.000000	-4.774922	-4.774922
Pu	2.394983	-7.162381	-7.162381
Tm	-1.197502	-5.968651	-8.356120
Tm	5.987467	-5.968651	-5.968651
Tm	3.592484	-3.581192	-5.968651
Tm	1.197502	-3.581192	-8.356120
O	5.823286	-1.036678	-8.513172
O	8.546630	-1.036678	-5.811600
O	3.756665	1.036678	-8.513172
O	6.151658	1.350791	-6.125713
O	10.613262	1.036678	-5.811600
O	8.218269	3.424137	-6.125713
O	8.218269	1.350791	-8.199059
O	6.151658	3.424137	-8.199059
Pu	4.789976	0.000000	-4.774922
Pu	7.184958	-2.387459	-7.162381
Tm	3.592474	-1.193730	-8.356120
Tm	10.777443	-1.193729	-5.968651
Tm	8.382460	1.193730	-5.968651
Tm	5.987477	1.193730	-8.356120
