40

Au	2.088680	2.088680	2.088680
Ba_sv	0.000000	0.000000	0.000000
O	2.088680	0.000000	2.088680
O	0.000000	2.088680	2.088680
O	2.088680	2.088680	0.000000
Au	2.088680	2.088680	6.266054
Ba_sv	0.000000	0.000000	4.177374
O	2.088680	0.000000	6.266054
O	0.000000	2.088680	6.266054
O	2.088680	2.088680	4.177374
Au	2.088680	6.266054	2.088680
Ba_sv	0.000000	4.177374	0.000000
O	2.088680	4.177374	2.088680
O	0.000000	6.266054	2.088680
O	2.088680	6.266054	0.000000
Au	2.088680	6.266054	6.266054
Ba_sv	0.000000	4.177374	4.177374
O	2.088680	4.177374	6.266054
O	0.000000	6.266054	6.266054
O	2.088680	6.266054	4.177374
Au	6.266054	2.088680	2.088680
Ba_sv	4.177374	0.000000	0.000000
O	6.266054	0.000000	2.088680
O	4.177374	2.088680	2.088680
O	6.266054	2.088680	0.000000
Au	6.266054	2.088680	6.266054
Ba_sv	4.177374	0.000000	4.177374
O	6.266054	0.000000	6.266054
O	4.177374	2.088680	6.266054
O	6.266054	2.088680	4.177374
Au	6.266054	6.266054	2.088680
Ba_sv	4.177374	4.177374	0.000000
O	6.266054	4.177374	2.088680
O	4.177374	6.266054	2.088680
O	6.266054	6.266054	0.000000
Au	6.266054	6.266054	6.266054
Ba_sv	4.177374	4.177374	4.177374
O	6.266054	4.177374	6.266054
O	4.177374	6.266054	6.266054
O	6.266054	6.266054	4.177374
