40

Cl	0.000000	0.000000	0.000000
F	0.000000	1.953123	1.953123
F	1.953123	0.000000	1.953123
F	1.953123	1.953123	0.000000
O	1.953123	1.953123	1.953123
Cl	0.000000	0.000000	3.906245
F	0.000000	1.953123	5.859368
F	1.953123	0.000000	5.859368
F	1.953123	1.953123	3.906245
O	1.953123	1.953123	5.859368
Cl	0.000000	3.906245	0.000000
F	0.000000	5.859368	1.953123
F	1.953123	3.906245	1.953123
F	1.953123	5.859368	0.000000
O	1.953123	5.859368	1.953123
Cl	0.000000	3.906245	3.906245
F	0.000000	5.859368	5.859368
F	1.953123	3.906245	5.859368
F	1.953123	5.859368	3.906245
O	1.953123	5.859368	5.859368
Cl	3.906245	0.000000	0.000000
F	3.906245	1.953123	1.953123
F	5.859368	0.000000	1.953123
F	5.859368	1.953123	0.000000
O	5.859368	1.953123	1.953123
Cl	3.906245	0.000000	3.906245
F	3.906245	1.953123	5.859368
F	5.859368	0.000000	5.859368
F	5.859368	1.953123	3.906245
O	5.859368	1.953123	5.859368
Cl	3.906245	3.906245	0.000000
F	3.906245	5.859368	1.953123
F	5.859368	3.906245	1.953123
F	5.859368	5.859368	0.000000
O	5.859368	5.859368	1.953123
Cl	3.906245	3.906245	3.906245
F	3.906245	5.859368	5.859368
F	5.859368	3.906245	5.859368
F	5.859368	5.859368	3.906245
O	5.859368	5.859368	5.859368
