40

Cl	0.000000	0.000000	0.000000
F	0.000000	1.961229	1.961229
F	1.961229	0.000000	1.961229
F	1.961229	1.961229	0.000000
O	1.961229	1.961229	1.961229
Cl	0.000000	0.000000	3.922458
F	0.000000	1.961229	5.883687
F	1.961229	0.000000	5.883687
F	1.961229	1.961229	3.922458
O	1.961229	1.961229	5.883687
Cl	0.000000	3.922458	0.000000
F	0.000000	5.883687	1.961229
F	1.961229	3.922458	1.961229
F	1.961229	5.883687	0.000000
O	1.961229	5.883687	1.961229
Cl	0.000000	3.922458	3.922458
F	0.000000	5.883687	5.883687
F	1.961229	3.922458	5.883687
F	1.961229	5.883687	3.922458
O	1.961229	5.883687	5.883687
Cl	3.922458	0.000000	0.000000
F	3.922458	1.961229	1.961229
F	5.883687	0.000000	1.961229
F	5.883687	1.961229	0.000000
O	5.883687	1.961229	1.961229
Cl	3.922458	0.000000	3.922458
F	3.922458	1.961229	5.883687
F	5.883687	0.000000	5.883687
F	5.883687	1.961229	3.922458
O	5.883687	1.961229	5.883687
Cl	3.922458	3.922458	0.000000
F	3.922458	5.883687	1.961229
F	5.883687	3.922458	1.961229
F	5.883687	5.883687	0.000000
O	5.883687	5.883687	1.961229
Cl	3.922458	3.922458	3.922458
F	3.922458	5.883687	5.883687
F	5.883687	3.922458	5.883687
F	5.883687	5.883687	3.922458
O	5.883687	5.883687	5.883687
