40

Cl	2.073061	2.073061	2.073061
F	0.000000	2.073061	2.073061
F	2.073061	0.000000	2.073061
F	2.073061	2.073061	0.000000
O	0.000000	0.000000	0.000000
Cl	2.073061	2.073061	6.219183
F	0.000000	2.073061	6.219183
F	2.073061	0.000000	6.219183
F	2.073061	2.073061	4.146122
O	0.000000	0.000000	4.146122
Cl	2.073061	6.219183	2.073061
F	0.000000	6.219183	2.073061
F	2.073061	4.146122	2.073061
F	2.073061	6.219183	0.000000
O	0.000000	4.146122	0.000000
Cl	2.073061	6.219183	6.219183
F	0.000000	6.219183	6.219183
F	2.073061	4.146122	6.219183
F	2.073061	6.219183	4.146122
O	0.000000	4.146122	4.146122
Cl	6.219183	2.073061	2.073061
F	4.146122	2.073061	2.073061
F	6.219183	0.000000	2.073061
F	6.219183	2.073061	0.000000
O	4.146122	0.000000	0.000000
Cl	6.219183	2.073061	6.219183
F	4.146122	2.073061	6.219183
F	6.219183	0.000000	6.219183
F	6.219183	2.073061	4.146122
O	4.146122	0.000000	4.146122
Cl	6.219183	6.219183	2.073061
F	4.146122	6.219183	2.073061
F	6.219183	4.146122	2.073061
F	6.219183	6.219183	0.000000
O	4.146122	4.146122	0.000000
Cl	6.219183	6.219183	6.219183
F	4.146122	6.219183	6.219183
F	6.219183	4.146122	6.219183
F	6.219183	6.219183	4.146122
O	4.146122	4.146122	4.146122
