40

O	0.000000	1.979469	1.979469
O	1.979469	0.000000	1.979469
O	1.979469	1.979469	0.000000
Ti	1.979469	1.979469	1.979469
La	0.000000	0.000000	0.000000
O	0.000000	1.979469	5.938407
O	1.979469	0.000000	5.938407
O	1.979469	1.979469	3.958938
Ti	1.979469	1.979469	5.938407
La	0.000000	0.000000	3.958938
O	0.000000	5.938407	1.979469
O	1.979469	3.958938	1.979469
O	1.979469	5.938407	0.000000
Ti	1.979469	5.938407	1.979469
La	0.000000	3.958938	0.000000
O	0.000000	5.938407	5.938407
O	1.979469	3.958938	5.938407
O	1.979469	5.938407	3.958938
Ti	1.979469	5.938407	5.938407
La	0.000000	3.958938	3.958938
O	3.958938	1.979469	1.979469
O	5.938407	0.000000	1.979469
O	5.938407	1.979469	0.000000
Ti	5.938407	1.979469	1.979469
La	3.958938	0.000000	0.000000
O	3.958938	1.979469	5.938407
O	5.938407	0.000000	5.938407
O	5.938407	1.979469	3.958938
Ti	5.938407	1.979469	5.938407
La	3.958938	0.000000	3.958938
O	3.958938	5.938407	1.979469
O	5.938407	3.958938	1.979469
O	5.938407	5.938407	0.000000
Ti	5.938407	5.938407	1.979469
La	3.958938	3.958938	0.000000
O	3.958938	5.938407	5.938407
O	5.938407	3.958938	5.938407
O	5.938407	5.938407	3.958938
Ti	5.938407	5.938407	5.938407
La	3.958938	3.958938	3.958938
