40

Ca	0.000000	0.000000	0.000000
In	2.069881	2.069881	2.069881
O	0.000000	2.069881	2.069881
O	2.069881	0.000000	2.069881
O	2.069881	2.069881	0.000000
Ca	0.000000	0.000000	4.139761
In	2.069881	2.069881	6.209642
O	0.000000	2.069881	6.209642
O	2.069881	0.000000	6.209642
O	2.069881	2.069881	4.139761
Ca	0.000000	4.139761	0.000000
In	2.069881	6.209642	2.069881
O	0.000000	6.209642	2.069881
O	2.069881	4.139761	2.069881
O	2.069881	6.209642	0.000000
Ca	0.000000	4.139761	4.139761
In	2.069881	6.209642	6.209642
O	0.000000	6.209642	6.209642
O	2.069881	4.139761	6.209642
O	2.069881	6.209642	4.139761
Ca	4.139761	0.000000	0.000000
In	6.209642	2.069881	2.069881
O	4.139761	2.069881	2.069881
O	6.209642	0.000000	2.069881
O	6.209642	2.069881	0.000000
Ca	4.139761	0.000000	4.139761
In	6.209642	2.069881	6.209642
O	4.139761	2.069881	6.209642
O	6.209642	0.000000	6.209642
O	6.209642	2.069881	4.139761
Ca	4.139761	4.139761	0.000000
In	6.209642	6.209642	2.069881
O	4.139761	6.209642	2.069881
O	6.209642	4.139761	2.069881
O	6.209642	6.209642	0.000000
Ca	4.139761	4.139761	4.139761
In	6.209642	6.209642	6.209642
O	4.139761	6.209642	6.209642
O	6.209642	4.139761	6.209642
O	6.209642	6.209642	4.139761
