40

Ca	0.000000	0.000000	0.000000
In	2.068895	2.068895	2.068895
O	0.000000	2.068895	2.068895
O	2.068895	0.000000	2.068895
O	2.068895	2.068895	0.000000
Ca	0.000000	0.000000	4.137789
In	2.068895	2.068895	6.206684
O	0.000000	2.068895	6.206684
O	2.068895	0.000000	6.206684
O	2.068895	2.068895	4.137789
Ca	0.000000	4.137789	0.000000
In	2.068895	6.206684	2.068895
O	0.000000	6.206684	2.068895
O	2.068895	4.137789	2.068895
O	2.068895	6.206684	0.000000
Ca	0.000000	4.137789	4.137789
In	2.068895	6.206684	6.206684
O	0.000000	6.206684	6.206684
O	2.068895	4.137789	6.206684
O	2.068895	6.206684	4.137789
Ca	4.137789	0.000000	0.000000
In	6.206684	2.068895	2.068895
O	4.137789	2.068895	2.068895
O	6.206684	0.000000	2.068895
O	6.206684	2.068895	0.000000
Ca	4.137789	0.000000	4.137789
In	6.206684	2.068895	6.206684
O	4.137789	2.068895	6.206684
O	6.206684	0.000000	6.206684
O	6.206684	2.068895	4.137789
Ca	4.137789	4.137789	0.000000
In	6.206684	6.206684	2.068895
O	4.137789	6.206684	2.068895
O	6.206684	4.137789	2.068895
O	6.206684	6.206684	0.000000
Ca	4.137789	4.137789	4.137789
In	6.206684	6.206684	6.206684
O	4.137789	6.206684	6.206684
O	6.206684	4.137789	6.206684
O	6.206684	6.206684	4.137789
