40

Ca	2.217834	2.217834	2.217834
In	0.000000	0.000000	0.000000
O	0.000000	2.217834	2.217834
O	2.217834	0.000000	2.217834
O	2.217834	2.217834	0.000000
Ca	2.217834	2.217834	6.653503
In	0.000000	0.000000	4.435669
O	0.000000	2.217834	6.653503
O	2.217834	0.000000	6.653503
O	2.217834	2.217834	4.435669
Ca	2.217834	6.653503	2.217834
In	0.000000	4.435669	0.000000
O	0.000000	6.653503	2.217834
O	2.217834	4.435669	2.217834
O	2.217834	6.653503	0.000000
Ca	2.217834	6.653503	6.653503
In	0.000000	4.435669	4.435669
O	0.000000	6.653503	6.653503
O	2.217834	4.435669	6.653503
O	2.217834	6.653503	4.435669
Ca	6.653503	2.217834	2.217834
In	4.435669	0.000000	0.000000
O	4.435669	2.217834	2.217834
O	6.653503	0.000000	2.217834
O	6.653503	2.217834	0.000000
Ca	6.653503	2.217834	6.653503
In	4.435669	0.000000	4.435669
O	4.435669	2.217834	6.653503
O	6.653503	0.000000	6.653503
O	6.653503	2.217834	4.435669
Ca	6.653503	6.653503	2.217834
In	4.435669	4.435669	0.000000
O	4.435669	6.653503	2.217834
O	6.653503	4.435669	2.217834
O	6.653503	6.653503	0.000000
Ca	6.653503	6.653503	6.653503
In	4.435669	4.435669	4.435669
O	4.435669	6.653503	6.653503
O	6.653503	4.435669	6.653503
O	6.653503	6.653503	4.435669
