40

O	1.972230	1.972230	0.000000
O	0.000000	1.972230	1.972230
O	1.972230	0.000000	1.972230
Ru	1.972230	1.972230	1.972230
Te	0.000000	0.000000	0.000000
O	1.972230	1.972230	3.944453
O	0.000000	1.972230	5.916683
O	1.972230	0.000000	5.916683
Ru	1.972230	1.972230	5.916683
Te	0.000000	0.000000	3.944453
O	1.972230	5.916683	0.000000
O	0.000000	5.916683	1.972230
O	1.972230	3.944453	1.972230
Ru	1.972230	5.916683	1.972230
Te	0.000000	3.944453	0.000000
O	1.972230	5.916683	3.944453
O	0.000000	5.916683	5.916683
O	1.972230	3.944453	5.916683
Ru	1.972230	5.916683	5.916683
Te	0.000000	3.944453	3.944453
O	5.916683	1.972230	0.000000
O	3.944453	1.972230	1.972230
O	5.916683	0.000000	1.972230
Ru	5.916683	1.972230	1.972230
Te	3.944453	0.000000	0.000000
O	5.916683	1.972230	3.944453
O	3.944453	1.972230	5.916683
O	5.916683	0.000000	5.916683
Ru	5.916683	1.972230	5.916683
Te	3.944453	0.000000	3.944453
O	5.916683	5.916683	0.000000
O	3.944453	5.916683	1.972230
O	5.916683	3.944453	1.972230
Ru	5.916683	5.916683	1.972230
Te	3.944453	3.944453	0.000000
O	5.916683	5.916683	3.944453
O	3.944453	5.916683	5.916683
O	5.916683	3.944453	5.916683
Ru	5.916683	5.916683	5.916683
Te	3.944453	3.944453	3.944453
