40

As	0.000000	0.000000	0.000000
K	2.142760	2.142760	2.142760
O	2.142760	2.142760	0.000000
O	2.142760	0.000000	2.142760
O	0.000000	2.142760	2.142760
As	0.000000	0.000000	4.285520
K	2.142760	2.142760	6.428280
O	2.142760	2.142760	4.285520
O	2.142760	0.000000	6.428280
O	0.000000	2.142760	6.428280
As	0.000000	4.285520	0.000000
K	2.142760	6.428280	2.142760
O	2.142760	6.428280	0.000000
O	2.142760	4.285520	2.142760
O	0.000000	6.428280	2.142760
As	0.000000	4.285520	4.285520
K	2.142760	6.428280	6.428280
O	2.142760	6.428280	4.285520
O	2.142760	4.285520	6.428280
O	0.000000	6.428280	6.428280
As	4.285520	0.000000	0.000000
K	6.428280	2.142760	2.142760
O	6.428280	2.142760	0.000000
O	6.428280	0.000000	2.142760
O	4.285520	2.142760	2.142760
As	4.285520	0.000000	4.285520
K	6.428280	2.142760	6.428280
O	6.428280	2.142760	4.285520
O	6.428280	0.000000	6.428280
O	4.285520	2.142760	6.428280
As	4.285520	4.285520	0.000000
K	6.428280	6.428280	2.142760
O	6.428280	6.428280	0.000000
O	6.428280	4.285520	2.142760
O	4.285520	6.428280	2.142760
As	4.285520	4.285520	4.285520
K	6.428280	6.428280	6.428280
O	6.428280	6.428280	4.285520
O	6.428280	4.285520	6.428280
O	4.285520	6.428280	6.428280
