40

As	0.000000	0.000000	0.000000
K	2.102499	2.102499	2.102499
O	2.102499	2.102499	0.000000
O	2.102499	0.000000	2.102499
O	0.000000	2.102499	2.102499
As	0.000000	0.000000	4.204998
K	2.102499	2.102499	6.307497
O	2.102499	2.102499	4.204998
O	2.102499	0.000000	6.307497
O	0.000000	2.102499	6.307497
As	0.000000	4.204998	0.000000
K	2.102499	6.307497	2.102499
O	2.102499	6.307497	0.000000
O	2.102499	4.204998	2.102499
O	0.000000	6.307497	2.102499
As	0.000000	4.204998	4.204998
K	2.102499	6.307497	6.307497
O	2.102499	6.307497	4.204998
O	2.102499	4.204998	6.307497
O	0.000000	6.307497	6.307497
As	4.204998	0.000000	0.000000
K	6.307497	2.102499	2.102499
O	6.307497	2.102499	0.000000
O	6.307497	0.000000	2.102499
O	4.204998	2.102499	2.102499
As	4.204998	0.000000	4.204998
K	6.307497	2.102499	6.307497
O	6.307497	2.102499	4.204998
O	6.307497	0.000000	6.307497
O	4.204998	2.102499	6.307497
As	4.204998	4.204998	0.000000
K	6.307497	6.307497	2.102499
O	6.307497	6.307497	0.000000
O	6.307497	4.204998	2.102499
O	4.204998	6.307497	2.102499
As	4.204998	4.204998	4.204998
K	6.307497	6.307497	6.307497
O	6.307497	6.307497	4.204998
O	6.307497	4.204998	6.307497
O	4.204998	6.307497	6.307497
