40

O	0.000000	2.237096	0.000000
O	0.000000	0.000000	2.237096
O	2.237096	0.000000	0.000000
Ba	2.237096	2.237096	2.237096
Ce	0.000000	0.000000	0.000000
O	0.000000	2.237096	4.474193
O	0.000000	0.000000	6.711289
O	2.237096	0.000000	4.474193
Ba	2.237096	2.237096	6.711289
Ce	0.000000	0.000000	4.474193
O	0.000000	6.711289	0.000000
O	0.000000	4.474193	2.237096
O	2.237096	4.474193	0.000000
Ba	2.237096	6.711289	2.237096
Ce	0.000000	4.474193	0.000000
O	0.000000	6.711289	4.474193
O	0.000000	4.474193	6.711289
O	2.237096	4.474193	4.474193
Ba	2.237096	6.711289	6.711289
Ce	0.000000	4.474193	4.474193
O	4.474193	2.237096	0.000000
O	4.474193	0.000000	2.237096
O	6.711289	0.000000	0.000000
Ba	6.711289	2.237096	2.237096
Ce	4.474193	0.000000	0.000000
O	4.474193	2.237096	4.474193
O	4.474193	0.000000	6.711289
O	6.711289	0.000000	4.474193
Ba	6.711289	2.237096	6.711289
Ce	4.474193	0.000000	4.474193
O	4.474193	6.711289	0.000000
O	4.474193	4.474193	2.237096
O	6.711289	4.474193	0.000000
Ba	6.711289	6.711289	2.237096
Ce	4.474193	4.474193	0.000000
O	4.474193	6.711289	4.474193
O	4.474193	4.474193	6.711289
O	6.711289	4.474193	4.474193
Ba	6.711289	6.711289	6.711289
Ce	4.474193	4.474193	4.474193
