112

Dy	0.000000	0.000000	0.000000
Dy	2.314539	-2.314537	-2.314537
Ge	-1.157275	-1.157269	-3.471806
Ge	5.786353	-1.157269	-1.157269
Ge	3.471814	1.157269	-1.157269
Ge	1.157275	1.157269	-3.471806
O	3.559257	-1.069612	-1.069612
O	-1.069821	1.069612	-3.559463
O	1.069821	-1.069612	-3.559463
O	1.244718	1.244925	-1.244925
O	5.698900	1.069612	-1.069612
O	1.244718	3.384149	-3.384149
O	3.384361	3.384149	-1.244925
O	3.384361	1.244925	-3.384149
Dy	4.629082	4.629077	0.000000
Dy	6.943622	2.314540	-2.314537
Ge	3.471808	3.471809	-3.471806
Ge	10.415435	3.471809	-1.157269
Ge	8.100896	5.786346	-1.157269
Ge	5.786357	5.786346	-3.471806
O	8.188339	3.559466	-1.069612
O	3.559261	5.698689	-3.559463
O	5.698904	3.559465	-3.559463
O	5.873800	5.874003	-1.244925
O	10.327982	5.698689	-1.069612
O	5.873800	8.013226	-3.384149
O	8.013443	8.013226	-1.244925
O	8.013443	5.874003	-3.384149
Dy	-4.629082	0.000000	-4.629077
Dy	-2.314543	-2.314537	-6.943614
Ge	-5.786357	-1.157269	-8.100883
Ge	1.157271	-1.157269	-5.786346
Ge	-1.157268	1.157269	-5.786346
Ge	-3.471808	1.157269	-8.100883
O	-1.069825	-1.069612	-5.698689
O	-5.698904	1.069612	-8.188540
O	-3.559261	-1.069612	-8.188540
O	-3.384364	1.244925	-5.874003
O	1.069817	1.069612	-5.698689
O	-3.384364	3.384149	-8.013226
O	-1.244722	3.384149	-5.874003
O	-1.244722	1.244925	-8.013226
Dy	0.000000	4.629077	-4.629077
Dy	2.314539	2.314540	-6.943614
Ge	-1.157275	3.471809	-8.100883
Ge	5.786353	3.471809	-5.786346
Ge	3.471814	5.786346	-5.786346
Ge	1.157275	5.786346	-8.100883
O	3.559257	3.559466	-5.698689
O	-1.069821	5.698689	-8.188540
O	1.069821	3.559465	-8.188540
O	1.244718	5.874003	-5.874003
O	5.698900	5.698689	-5.698689
O	1.244718	8.013226	-8.013226
O	3.384361	8.013226	-5.874003
O	3.384361	5.874003	-8.013226
Dy	4.629082	-4.629077	0.000000
Dy	6.943622	-6.943614	-2.314537
Ge	3.471808	-5.786346	-3.471806
Ge	10.415435	-5.786346	-1.157269
Ge	8.100896	-3.471809	-1.157269
Ge	5.786357	-3.471809	-3.471806
O	8.188339	-5.698689	-1.069612
O	3.559261	-3.559465	-3.559463
O	5.698904	-5.698689	-3.559463
O	5.873800	-3.384152	-1.244925
O	10.327982	-3.559465	-1.069612
O	5.873800	-1.244928	-3.384149
O	8.013443	-1.244928	-1.244925
O	8.013443	-3.384152	-3.384149
Dy	9.258165	0.000000	0.000000
Dy	11.572704	-2.314537	-2.314537
Ge	8.100890	-1.157269	-3.471806
Ge	15.044518	-1.157269	-1.157269
Ge	12.729978	1.157269	-1.157269
Ge	10.415439	1.157269	-3.471806
O	12.817422	-1.069612	-1.069612
O	8.188343	1.069612	-3.559463
O	10.327986	-1.069612	-3.559463
O	10.502882	1.244925	-1.244925
O	14.957064	1.069612	-1.069612
O	10.502883	3.384149	-3.384149
O	12.642525	3.384149	-1.244925
O	12.642525	1.244925	-3.384149
Dy	0.000000	-4.629077	-4.629077
Dy	2.314539	-6.943614	-6.943614
Ge	-1.157275	-5.786346	-8.100883
Ge	5.786353	-5.786346	-5.786346
Ge	3.471814	-3.471809	-5.786346
Ge	1.157275	-3.471809	-8.100883
O	3.559257	-5.698689	-5.698689
O	-1.069821	-3.559465	-8.188540
O	1.069821	-5.698689	-8.188540
O	1.244718	-3.384152	-5.874003
O	5.698900	-3.559465	-5.698689
O	1.244718	-1.244928	-8.013226
O	3.384361	-1.244928	-5.874003
O	3.384361	-3.384152	-8.013226
Dy	4.629082	0.000000	-4.629077
Dy	6.943622	-2.314537	-6.943614
Ge	3.471808	-1.157269	-8.100883
Ge	10.415435	-1.157269	-5.786346
Ge	8.100896	1.157269	-5.786346
Ge	5.786357	1.157269	-8.100883
O	8.188339	-1.069612	-5.698689
O	3.559261	1.069612	-8.188540
O	5.698904	-1.069612	-8.188540
O	5.873800	1.244925	-5.874003
O	10.327982	1.069612	-5.698689
O	5.873800	3.384149	-8.013226
O	8.013443	3.384149	-5.874003
O	8.013443	1.244925	-8.013226
