112

Dy	0.000000	0.000000	0.000000
Dy	2.329332	-2.329141	-2.329141
Ge	-1.164666	-1.164571	-3.493712
Ge	3.493998	1.164571	-1.164571
Ge	5.823330	-1.164571	-1.164571
Ge	1.164666	1.164571	-3.493712
O	3.580123	-1.078169	-1.078169
O	-1.078541	1.078169	-3.580114
O	1.078541	-1.078169	-3.580114
O	1.250791	1.250972	-1.250972
O	5.737204	1.078169	-1.078169
O	1.250791	3.407310	-3.407310
O	3.407873	3.407310	-1.250972
O	3.407873	1.250972	-3.407310
Dy	4.658664	4.658283	0.000000
Dy	6.987996	2.329141	-2.329141
Ge	3.493998	3.493712	-3.493712
Ge	8.152662	5.822854	-1.164571
Ge	10.481994	3.493712	-1.164571
Ge	5.823330	5.822854	-3.493712
O	8.238787	3.580114	-1.078169
O	3.580123	5.736452	-3.580114
O	5.737204	3.580114	-3.580114
O	5.909455	5.909255	-1.250972
O	10.395868	5.736452	-1.078169
O	5.909455	8.065593	-3.407310
O	8.066536	8.065593	-1.250972
O	8.066536	5.909255	-3.407310
Dy	-4.658664	0.000000	-4.658283
Dy	-2.329332	-2.329141	-6.987424
Ge	-5.823330	-1.164571	-8.151995
Ge	-1.164666	1.164571	-5.822854
Ge	1.164666	-1.164571	-5.822854
Ge	-3.493998	1.164571	-8.151995
O	-1.078541	-1.078169	-5.736452
O	-5.737204	1.078169	-8.238397
O	-3.580123	-1.078169	-8.238397
O	-3.407873	1.250972	-5.909255
O	1.078541	1.078169	-5.736452
O	-3.407873	3.407310	-8.065593
O	-1.250791	3.407310	-5.909255
O	-1.250791	1.250972	-8.065593
Dy	0.000000	4.658283	-4.658283
Dy	2.329332	2.329141	-6.987424
Ge	-1.164666	3.493712	-8.151995
Ge	3.493998	5.822854	-5.822854
Ge	5.823330	3.493712	-5.822854
Ge	1.164666	5.822854	-8.151995
O	3.580123	3.580114	-5.736452
O	-1.078541	5.736452	-8.238397
O	1.078541	3.580114	-8.238397
O	1.250791	5.909255	-5.909255
O	5.737204	5.736452	-5.736452
O	1.250791	8.065593	-8.065593
O	3.407873	8.065593	-5.909255
O	3.407873	5.909255	-8.065593
Dy	4.658664	-4.658283	0.000000
Dy	6.987996	-6.987424	-2.329141
Ge	3.493998	-5.822854	-3.493712
Ge	8.152662	-3.493712	-1.164571
Ge	10.481994	-5.822854	-1.164571
Ge	5.823330	-3.493712	-3.493712
O	8.238787	-5.736452	-1.078169
O	3.580123	-3.580114	-3.580114
O	5.737204	-5.736452	-3.580114
O	5.909455	-3.407310	-1.250972
O	10.395868	-3.580114	-1.078169
O	5.909455	-1.250972	-3.407310
O	8.066536	-1.250972	-1.250972
O	8.066536	-3.407310	-3.407310
Dy	9.317328	0.000000	0.000000
Dy	11.646660	-2.329141	-2.329141
Ge	8.152662	-1.164571	-3.493712
Ge	12.811326	1.164571	-1.164571
Ge	15.140657	-1.164571	-1.164571
Ge	10.481994	1.164571	-3.493712
O	12.897451	-1.078169	-1.078169
O	8.238787	1.078169	-3.580114
O	10.395868	-1.078169	-3.580114
O	10.568119	1.250972	-1.250972
O	15.054532	1.078169	-1.078169
O	10.568119	3.407310	-3.407310
O	12.725200	3.407310	-1.250972
O	12.725200	1.250972	-3.407310
Dy	0.000000	-4.658283	-4.658283
Dy	2.329332	-6.987424	-6.987424
Ge	-1.164666	-5.822854	-8.151995
Ge	3.493998	-3.493712	-5.822854
Ge	5.823330	-5.822854	-5.822854
Ge	1.164666	-3.493712	-8.151995
O	3.580123	-5.736452	-5.736452
O	-1.078541	-3.580114	-8.238397
O	1.078541	-5.736452	-8.238397
O	1.250791	-3.407310	-5.909255
O	5.737204	-3.580114	-5.736452
O	1.250791	-1.250972	-8.065593
O	3.407873	-1.250972	-5.909255
O	3.407873	-3.407310	-8.065593
Dy	4.658664	0.000000	-4.658283
Dy	6.987996	-2.329141	-6.987424
Ge	3.493998	-1.164571	-8.151995
Ge	8.152662	1.164571	-5.822854
Ge	10.481994	-1.164571	-5.822854
Ge	5.823330	1.164571	-8.151995
O	8.238787	-1.078169	-5.736452
O	3.580123	1.078169	-8.238397
O	5.737204	-1.078169	-8.238397
O	5.909455	1.250972	-5.909255
O	10.395868	1.078169	-5.736452
O	5.909455	3.407310	-8.065593
O	8.066536	3.407310	-5.909255
O	8.066536	1.250972	-8.065593
