40

Pu	0.000000	0.000000	0.000000
B	1.783420	1.783420	1.783420
O	1.783420	1.783420	0.000000
O	1.783420	0.000000	1.783420
O	0.000000	1.783420	1.783420
Pu	0.000000	0.000000	3.566825
B	1.783420	1.783420	5.350245
O	1.783420	1.783420	3.566825
O	1.783420	0.000000	5.350245
O	0.000000	1.783420	5.350245
Pu	0.000000	3.566825	0.000000
B	1.783420	5.350245	1.783420
O	1.783420	5.350245	0.000000
O	1.783420	3.566825	1.783420
O	0.000000	5.350245	1.783420
Pu	0.000000	3.566825	3.566825
B	1.783420	5.350245	5.350245
O	1.783420	5.350245	3.566825
O	1.783420	3.566825	5.350245
O	0.000000	5.350245	5.350245
Pu	3.566825	0.000000	0.000000
B	5.350245	1.783420	1.783420
O	5.350245	1.783420	0.000000
O	5.350245	0.000000	1.783420
O	3.566825	1.783420	1.783420
Pu	3.566825	0.000000	3.566825
B	5.350245	1.783420	5.350245
O	5.350245	1.783420	3.566825
O	5.350245	0.000000	5.350245
O	3.566825	1.783420	5.350245
Pu	3.566825	3.566825	0.000000
B	5.350245	5.350245	1.783420
O	5.350245	5.350245	0.000000
O	5.350245	3.566825	1.783420
O	3.566825	5.350245	1.783420
Pu	3.566825	3.566825	3.566825
B	5.350245	5.350245	5.350245
O	5.350245	5.350245	3.566825
O	5.350245	3.566825	5.350245
O	3.566825	5.350245	5.350245
