112

Ac	0.000000	0.000000	0.000000
Ac	2.308190	-2.308371	-2.308371
Ga	-1.154090	-1.154185	-3.462556
Ga	5.770460	-1.154185	-1.154185
Ga	1.154090	1.154185	-3.462556
Ga	3.462280	1.154185	-1.154185
O	3.663784	-0.951920	-0.951920
O	-0.952586	0.951920	-3.664822
O	0.952586	-0.951920	-3.664822
O	1.355604	1.356451	-1.356451
O	5.568955	0.951920	-0.951920
O	1.355604	3.260291	-3.260291
O	3.260766	3.260291	-1.356451
O	3.260766	1.356451	-3.260291
Ac	4.616370	4.616741	0.000000
Ac	6.924560	2.308370	-2.308371
Ga	3.462280	3.462556	-3.462556
Ga	10.386830	3.462556	-1.154185
Ga	5.770460	5.770926	-3.462556
Ga	8.078650	5.770926	-1.154185
O	8.280154	3.664821	-0.951920
O	3.663784	5.568661	-3.664822
O	5.568956	3.664821	-3.664822
O	5.971974	5.973192	-1.356451
O	10.185325	5.568661	-0.951920
O	5.971974	7.877032	-3.260291
O	7.877136	7.877032	-1.356451
O	7.877136	5.973192	-3.260291
Ac	-4.616370	0.000000	-4.616741
Ac	-2.308180	-2.308371	-6.925112
Ga	-5.770460	-1.154185	-8.079297
Ga	1.154090	-1.154185	-5.770926
Ga	-3.462280	1.154185	-8.079297
Ga	-1.154090	1.154185	-5.770926
O	-0.952586	-0.951920	-5.568661
O	-5.568956	0.951920	-8.281563
O	-3.663784	-0.951920	-8.281563
O	-3.260766	1.356451	-5.973192
O	0.952585	0.951920	-5.568661
O	-3.260766	3.260291	-7.877032
O	-1.355604	3.260291	-5.973192
O	-1.355604	1.356451	-7.877032
Ac	0.000000	4.616741	-4.616741
Ac	2.308190	2.308370	-6.925112
Ga	-1.154090	3.462556	-8.079297
Ga	5.770460	3.462556	-5.770926
Ga	1.154090	5.770926	-8.079297
Ga	3.462280	5.770926	-5.770926
O	3.663784	3.664821	-5.568661
O	-0.952586	5.568661	-8.281563
O	0.952586	3.664821	-8.281563
O	1.355604	5.973192	-5.973192
O	5.568955	5.568661	-5.568661
O	1.355604	7.877032	-7.877032
O	3.260766	7.877032	-5.973192
O	3.260766	5.973192	-7.877032
Ac	4.616370	-4.616741	0.000000
Ac	6.924560	-6.925112	-2.308371
Ga	3.462280	-5.770926	-3.462556
Ga	10.386830	-5.770926	-1.154185
Ga	5.770460	-3.462556	-3.462556
Ga	8.078650	-3.462556	-1.154185
O	8.280154	-5.568661	-0.951920
O	3.663784	-3.664821	-3.664822
O	5.568956	-5.568661	-3.664822
O	5.971974	-3.260290	-1.356451
O	10.185325	-3.664821	-0.951920
O	5.971974	-1.356450	-3.260291
O	7.877136	-1.356450	-1.356451
O	7.877136	-3.260290	-3.260291
Ac	9.232740	0.000000	0.000000
Ac	11.540930	-2.308371	-2.308371
Ga	8.078650	-1.154185	-3.462556
Ga	15.003199	-1.154185	-1.154185
Ga	10.386830	1.154185	-3.462556
Ga	12.695020	1.154185	-1.154185
O	12.896524	-0.951920	-0.951920
O	8.280154	0.951920	-3.664822
O	10.185326	-0.951920	-3.664822
O	10.588344	1.356451	-1.356451
O	14.801695	0.951920	-0.951920
O	10.588344	3.260291	-3.260291
O	12.493506	3.260291	-1.356451
O	12.493506	1.356451	-3.260291
Ac	0.000000	-4.616741	-4.616741
Ac	2.308190	-6.925112	-6.925112
Ga	-1.154090	-5.770926	-8.079297
Ga	5.770460	-5.770926	-5.770926
Ga	1.154090	-3.462556	-8.079297
Ga	3.462280	-3.462556	-5.770926
O	3.663784	-5.568661	-5.568661
O	-0.952586	-3.664821	-8.281563
O	0.952586	-5.568661	-8.281563
O	1.355604	-3.260290	-5.973192
O	5.568955	-3.664821	-5.568661
O	1.355604	-1.356450	-7.877032
O	3.260766	-1.356450	-5.973192
O	3.260766	-3.260290	-7.877032
Ac	4.616370	0.000000	-4.616741
Ac	6.924560	-2.308371	-6.925112
Ga	3.462280	-1.154185	-8.079297
Ga	10.386830	-1.154185	-5.770926
Ga	5.770460	1.154185	-8.079297
Ga	8.078650	1.154185	-5.770926
O	8.280154	-0.951920	-5.568661
O	3.663784	0.951920	-8.281563
O	5.568956	-0.951920	-8.281563
O	5.971974	1.356451	-5.973192
O	10.185325	0.951920	-5.568661
O	5.971974	3.260291	-7.877032
O	7.877136	3.260291	-5.973192
O	7.877136	1.356451	-7.877032
