40

O	2.080198	2.080198	0.000000
O	0.000000	2.080198	2.080198
O	2.080198	0.000000	2.080198
Sr	0.000000	0.000000	0.000000
Zr	2.065198	2.080198	2.080198
O	2.080198	2.080198	4.160396
O	0.000000	2.080198	6.240594
O	2.080198	0.000000	6.240594
Sr	0.000000	0.000000	4.160396
Zr	2.065198	2.080198	6.240594
O	2.080198	6.240594	0.000000
O	0.000000	6.240594	2.080198
O	2.080198	4.160396	2.080198
Sr	0.000000	4.160396	0.000000
Zr	2.065198	6.240594	2.080198
O	2.080198	6.240594	4.160396
O	0.000000	6.240594	6.240594
O	2.080198	4.160396	6.240594
Sr	0.000000	4.160396	4.160396
Zr	2.065198	6.240594	6.240594
O	6.240594	2.080198	0.000000
O	4.160396	2.080198	2.080198
O	6.240594	0.000000	2.080198
Sr	4.160396	0.000000	0.000000
Zr	6.225594	2.080198	2.080198
O	6.240594	2.080198	4.160396
O	4.160396	2.080198	6.240594
O	6.240594	0.000000	6.240594
Sr	4.160396	0.000000	4.160396
Zr	6.225594	2.080198	6.240594
O	6.240594	6.240594	0.000000
O	4.160396	6.240594	2.080198
O	6.240594	4.160396	2.080198
Sr	4.160396	4.160396	0.000000
Zr	6.225594	6.240594	2.080198
O	6.240594	6.240594	4.160396
O	4.160396	6.240594	6.240594
O	6.240594	4.160396	6.240594
Sr	4.160396	4.160396	4.160396
Zr	6.225594	6.240594	6.240594
