112

Mg	1.441294	-0.007622	-1.018276
Mg	4.323881	0.007622	-1.018276
Mg	2.890210	-1.441294	-3.054827
Mg	2.874966	1.441294	-3.054827
Si	0.000000	2.882588	-2.036551
Si	0.000000	0.000000	-4.073103
O	1.506412	2.886077	0.966990
O	1.376176	2.886077	-3.003542
O	1.376176	-0.003489	-3.106112
O	-1.376176	2.879098	-3.003542
O	2.879098	1.506412	-0.966990
O	0.003489	1.506412	-1.069561
O	0.003489	1.376176	-5.040093
O	-0.003489	4.258764	-1.069561
Mg	-1.441294	2.874966	-5.091378
Mg	1.441294	2.890210	-5.091378
Mg	0.007622	1.441294	-7.127930
Mg	-0.007622	4.323881	-7.127930
Si	-2.882588	5.765175	-6.109654
Si	-2.882588	2.882588	-8.146205
O	-1.376176	5.768665	-3.106112
O	-1.506412	5.768665	-7.076644
O	-1.506412	2.879098	-7.179215
O	-4.258763	5.761686	-7.076644
O	-0.003489	4.388999	-5.040093
O	-2.879098	4.388999	-5.142663
O	-2.879098	4.258763	-9.113196
O	-2.886077	7.141351	-5.142663
Mg	4.323881	-2.890210	-5.091378
Mg	7.206469	-2.874966	-5.091378
Mg	5.772797	-4.323881	-7.127930
Mg	5.757553	-1.441294	-7.127930
Si	2.882588	0.000000	-6.109654
Si	2.882588	-2.882588	-8.146205
O	4.388999	0.003489	-3.106112
O	4.258763	0.003489	-7.076644
O	4.258764	-2.886077	-7.179215
O	1.506412	-0.003489	-7.076644
O	5.761686	-1.376176	-5.040093
O	2.886077	-1.376176	-5.142663
O	2.886077	-1.506412	-9.113196
O	2.879098	1.376176	-5.142663
Mg	1.441294	-0.007622	-9.164481
Mg	4.323881	0.007622	-9.164481
Mg	2.890210	-1.441294	-11.201032
Mg	2.874966	1.441294	-11.201032
Si	0.000000	2.882588	-10.182756
Si	0.000000	0.000000	-12.219308
O	1.506412	2.886077	-7.179215
O	1.376176	2.886077	-11.149747
O	1.376176	-0.003489	-11.252317
O	-1.376176	2.879098	-11.149747
O	2.879098	1.506412	-9.113196
O	0.003489	1.506412	-9.215766
O	0.003489	1.376176	-13.186298
O	-0.003489	4.258764	-9.215766
Mg	4.323881	2.874966	3.054827
Mg	7.206469	2.890210	3.054827
Mg	5.772797	1.441294	1.018276
Mg	5.757553	4.323881	1.018276
Si	2.882588	5.765175	2.036551
Si	2.882588	2.882588	0.000000
O	4.388999	5.768665	5.040093
O	4.258763	5.768665	1.069561
O	4.258764	2.879098	0.966991
O	1.506412	5.761686	1.069561
O	5.761686	4.388999	3.106112
O	2.886077	4.388999	3.003542
O	2.886077	4.258763	-0.966991
O	2.879098	7.141351	3.003542
Mg	1.441294	5.757553	-1.018276
Mg	4.323881	5.772797	-1.018276
Mg	2.890210	4.323881	-3.054827
Mg	2.874966	7.206469	-3.054827
Si	0.000000	8.647763	-2.036551
Si	0.000000	5.765175	-4.073103
O	1.506412	8.651252	0.966990
O	1.376176	8.651252	-3.003542
O	1.376176	5.761686	-3.106112
O	-1.376176	8.644273	-3.003542
O	2.879098	7.271587	-0.966990
O	0.003489	7.271587	-1.069561
O	0.003489	7.141351	-5.040093
O	-0.003489	10.023939	-1.069561
Mg	7.206469	-0.007622	-1.018276
Mg	10.089057	0.007622	-1.018276
Mg	8.655385	-1.441294	-3.054827
Mg	8.640141	1.441294	-3.054827
Si	5.765175	2.882588	-2.036551
Si	5.765175	0.000000	-4.073103
O	7.271587	2.886077	0.966990
O	7.141351	2.886077	-3.003542
O	7.141351	-0.003489	-3.106112
O	4.388999	2.879098	-3.003542
O	8.644273	1.506412	-0.966990
O	5.768665	1.506412	-1.069561
O	5.768665	1.376176	-5.040093
O	5.761686	4.258764	-1.069561
Mg	4.323881	2.874966	-5.091378
Mg	7.206469	2.890210	-5.091378
Mg	5.772797	1.441294	-7.127930
Mg	5.757553	4.323881	-7.127930
Si	2.882588	5.765175	-6.109654
Si	2.882588	2.882588	-8.146205
O	4.388999	5.768665	-3.106112
O	4.258763	5.768665	-7.076644
O	4.258764	2.879098	-7.179215
O	1.506412	5.761686	-7.076644
O	5.761686	4.388999	-5.040093
O	2.886077	4.388999	-5.142663
O	2.886077	4.258763	-9.113196
O	2.879098	7.141351	-5.142663
