40

B	1.837340	1.837340	1.837340
O	1.837340	1.837340	0.000000
O	0.000000	1.837340	1.837340
O	1.837340	0.000000	1.837340
Th	0.000000	0.000000	0.000000
B	1.837340	1.837340	5.512012
O	1.837340	1.837340	3.674672
O	0.000000	1.837340	5.512012
O	1.837340	0.000000	5.512012
Th	0.000000	0.000000	3.674672
B	1.837340	5.512012	1.837340
O	1.837340	5.512012	0.000000
O	0.000000	5.512012	1.837340
O	1.837340	3.674672	1.837340
Th	0.000000	3.674672	0.000000
B	1.837340	5.512012	5.512012
O	1.837340	5.512012	3.674672
O	0.000000	5.512012	5.512012
O	1.837340	3.674672	5.512012
Th	0.000000	3.674672	3.674672
B	5.512012	1.837340	1.837340
O	5.512012	1.837340	0.000000
O	3.674672	1.837340	1.837340
O	5.512012	0.000000	1.837340
Th	3.674672	0.000000	0.000000
B	5.512012	1.837340	5.512012
O	5.512012	1.837340	3.674672
O	3.674672	1.837340	5.512012
O	5.512012	0.000000	5.512012
Th	3.674672	0.000000	3.674672
B	5.512012	5.512012	1.837340
O	5.512012	5.512012	0.000000
O	3.674672	5.512012	1.837340
O	5.512012	3.674672	1.837340
Th	3.674672	3.674672	0.000000
B	5.512012	5.512012	5.512012
O	5.512012	5.512012	3.674672
O	3.674672	5.512012	5.512012
O	5.512012	3.674672	5.512012
Th	3.674672	3.674672	3.674672
