40

Ca	2.273484	2.273484	2.273484
N	0.000000	0.000000	0.000000
O	0.000000	2.273484	2.273484
O	2.273484	0.000000	2.273484
O	2.273484	2.273484	0.000000
Ca	2.273484	2.273484	6.820452
N	0.000000	0.000000	4.546968
O	0.000000	2.273484	6.820452
O	2.273484	0.000000	6.820452
O	2.273484	2.273484	4.546968
Ca	2.273484	6.820452	2.273484
N	0.000000	4.546968	0.000000
O	0.000000	6.820452	2.273484
O	2.273484	4.546968	2.273484
O	2.273484	6.820452	0.000000
Ca	2.273484	6.820452	6.820452
N	0.000000	4.546968	4.546968
O	0.000000	6.820452	6.820452
O	2.273484	4.546968	6.820452
O	2.273484	6.820452	4.546968
Ca	6.820452	2.273484	2.273484
N	4.546968	0.000000	0.000000
O	4.546968	2.273484	2.273484
O	6.820452	0.000000	2.273484
O	6.820452	2.273484	0.000000
Ca	6.820452	2.273484	6.820452
N	4.546968	0.000000	4.546968
O	4.546968	2.273484	6.820452
O	6.820452	0.000000	6.820452
O	6.820452	2.273484	4.546968
Ca	6.820452	6.820452	2.273484
N	4.546968	4.546968	0.000000
O	4.546968	6.820452	2.273484
O	6.820452	4.546968	2.273484
O	6.820452	6.820452	0.000000
Ca	6.820452	6.820452	6.820452
N	4.546968	4.546968	4.546968
O	4.546968	6.820452	6.820452
O	6.820452	4.546968	6.820452
O	6.820452	6.820452	4.546968
