40

Np	0.000000	0.000000	0.000000
O	2.194050	2.194050	0.000000
O	0.000000	2.194050	2.194050
O	2.194050	0.000000	2.194050
Sm_3	2.194050	2.194050	2.194050
Np	0.000000	0.000000	4.388100
O	2.194050	2.194050	4.388100
O	0.000000	2.194050	6.582150
O	2.194050	0.000000	6.582150
Sm_3	2.194050	2.194050	6.582150
Np	0.000000	4.388100	0.000000
O	2.194050	6.582150	0.000000
O	0.000000	6.582150	2.194050
O	2.194050	4.388100	2.194050
Sm_3	2.194050	6.582150	2.194050
Np	0.000000	4.388100	4.388100
O	2.194050	6.582150	4.388100
O	0.000000	6.582150	6.582150
O	2.194050	4.388100	6.582150
Sm_3	2.194050	6.582150	6.582150
Np	4.388100	0.000000	0.000000
O	6.582150	2.194050	0.000000
O	4.388100	2.194050	2.194050
O	6.582150	0.000000	2.194050
Sm_3	6.582150	2.194050	2.194050
Np	4.388100	0.000000	4.388100
O	6.582150	2.194050	4.388100
O	4.388100	2.194050	6.582150
O	6.582150	0.000000	6.582150
Sm_3	6.582150	2.194050	6.582150
Np	4.388100	4.388100	0.000000
O	6.582150	6.582150	0.000000
O	4.388100	6.582150	2.194050
O	6.582150	4.388100	2.194050
Sm_3	6.582150	6.582150	2.194050
Np	4.388100	4.388100	4.388100
O	6.582150	6.582150	4.388100
O	4.388100	6.582150	6.582150
O	6.582150	4.388100	6.582150
Sm_3	6.582150	6.582150	6.582150
