40

Cd	2.017750	2.017750	2.017750
Co	0.000000	0.000000	0.000000
O	2.017750	0.000000	2.017750
O	0.000000	2.017750	2.017750
O	2.017750	2.017750	0.000000
Cd	2.017750	2.017750	6.053252
Co	0.000000	0.000000	4.035502
O	2.017750	0.000000	6.053252
O	0.000000	2.017750	6.053252
O	2.017750	2.017750	4.035502
Cd	2.017750	6.053252	2.017750
Co	0.000000	4.035502	0.000000
O	2.017750	4.035502	2.017750
O	0.000000	6.053252	2.017750
O	2.017750	6.053252	0.000000
Cd	2.017750	6.053252	6.053252
Co	0.000000	4.035502	4.035502
O	2.017750	4.035502	6.053252
O	0.000000	6.053252	6.053252
O	2.017750	6.053252	4.035502
Cd	6.053252	2.017750	2.017750
Co	4.035502	0.000000	0.000000
O	6.053252	0.000000	2.017750
O	4.035502	2.017750	2.017750
O	6.053252	2.017750	0.000000
Cd	6.053252	2.017750	6.053252
Co	4.035502	0.000000	4.035502
O	6.053252	0.000000	6.053252
O	4.035502	2.017750	6.053252
O	6.053252	2.017750	4.035502
Cd	6.053252	6.053252	2.017750
Co	4.035502	4.035502	0.000000
O	6.053252	4.035502	2.017750
O	4.035502	6.053252	2.017750
O	6.053252	6.053252	0.000000
Cd	6.053252	6.053252	6.053252
Co	4.035502	4.035502	4.035502
O	6.053252	4.035502	6.053252
O	4.035502	6.053252	6.053252
O	6.053252	6.053252	4.035502
