40

N	1.746979	1.746979	1.746979
Ni	0.000000	0.000000	0.000000
O	0.000000	1.746979	1.746979
O	1.746979	0.000000	1.746979
O	1.746979	1.746979	0.000000
N	1.746979	1.746979	5.240936
Ni	0.000000	0.000000	3.493957
O	0.000000	1.746979	5.240936
O	1.746979	0.000000	5.240936
O	1.746979	1.746979	3.493957
N	1.746979	5.240936	1.746979
Ni	0.000000	3.493957	0.000000
O	0.000000	5.240936	1.746979
O	1.746979	3.493957	1.746979
O	1.746979	5.240936	0.000000
N	1.746979	5.240936	5.240936
Ni	0.000000	3.493957	3.493957
O	0.000000	5.240936	5.240936
O	1.746979	3.493957	5.240936
O	1.746979	5.240936	3.493957
N	5.240936	1.746979	1.746979
Ni	3.493957	0.000000	0.000000
O	3.493957	1.746979	1.746979
O	5.240936	0.000000	1.746979
O	5.240936	1.746979	0.000000
N	5.240936	1.746979	5.240936
Ni	3.493957	0.000000	3.493957
O	3.493957	1.746979	5.240936
O	5.240936	0.000000	5.240936
O	5.240936	1.746979	3.493957
N	5.240936	5.240936	1.746979
Ni	3.493957	3.493957	0.000000
O	3.493957	5.240936	1.746979
O	5.240936	3.493957	1.746979
O	5.240936	5.240936	0.000000
N	5.240936	5.240936	5.240936
Ni	3.493957	3.493957	3.493957
O	3.493957	5.240936	5.240936
O	5.240936	3.493957	5.240936
O	5.240936	5.240936	3.493957
