40

Au	0.000000	0.000000	0.000000
Be	1.785756	1.785756	1.785756
O	1.785756	1.785756	0.000000
O	1.785756	0.000000	1.785756
O	0.000000	1.785756	1.785756
Au	0.000000	0.000000	3.571512
Be	1.785756	1.785756	5.357268
O	1.785756	1.785756	3.571512
O	1.785756	0.000000	5.357268
O	0.000000	1.785756	5.357268
Au	0.000000	3.571512	0.000000
Be	1.785756	5.357268	1.785756
O	1.785756	5.357268	0.000000
O	1.785756	3.571512	1.785756
O	0.000000	5.357268	1.785756
Au	0.000000	3.571512	3.571512
Be	1.785756	5.357268	5.357268
O	1.785756	5.357268	3.571512
O	1.785756	3.571512	5.357268
O	0.000000	5.357268	5.357268
Au	3.571512	0.000000	0.000000
Be	5.357268	1.785756	1.785756
O	5.357268	1.785756	0.000000
O	5.357268	0.000000	1.785756
O	3.571512	1.785756	1.785756
Au	3.571512	0.000000	3.571512
Be	5.357268	1.785756	5.357268
O	5.357268	1.785756	3.571512
O	5.357268	0.000000	5.357268
O	3.571512	1.785756	5.357268
Au	3.571512	3.571512	0.000000
Be	5.357268	5.357268	1.785756
O	5.357268	5.357268	0.000000
O	5.357268	3.571512	1.785756
O	3.571512	5.357268	1.785756
Au	3.571512	3.571512	3.571512
Be	5.357268	5.357268	5.357268
O	5.357268	5.357268	3.571512
O	5.357268	3.571512	5.357268
O	3.571512	5.357268	5.357268
