112

O	0.972481	0.972629	-0.972629
O	-1.333660	1.333568	-3.278826
O	3.278611	-1.333568	-1.333568
O	1.333660	-1.333568	-3.278826
O	0.972481	3.639766	-3.639766
O	3.639790	3.639766	-0.972629
O	3.639790	0.972629	-3.639766
O	5.945931	1.333568	-1.333568
Si	0.000000	0.000000	0.000000
Si	2.306131	-2.306197	-2.306197
Sr	-1.153065	-1.153099	-3.459296
Sr	1.153065	1.153099	-3.459296
Sr	5.765336	-1.153099	-1.153099
Sr	3.459206	1.153099	-1.153099
O	5.584750	5.585022	-0.972629
O	3.278609	5.945962	-3.278826
O	7.890880	3.278825	-1.333568
O	5.945929	3.278825	-3.278826
O	5.584750	8.252159	-3.639766
O	8.252060	8.252159	-0.972629
O	8.252060	5.585022	-3.639766
O	10.558200	5.945962	-1.333568
Si	4.612269	4.612393	0.000000
Si	6.918400	2.306196	-2.306197
Sr	3.459204	3.459295	-3.459296
Sr	5.765334	5.765492	-3.459296
Sr	10.377605	3.459295	-1.153099
Sr	8.071475	5.765492	-1.153099
O	-3.639789	0.972629	-5.585022
O	-5.945929	1.333568	-7.891219
O	-1.333658	-1.333568	-5.945962
O	-3.278609	-1.333568	-7.891219
O	-3.639789	3.639766	-8.252159
O	-0.972479	3.639766	-5.585022
O	-0.972479	0.972629	-8.252159
O	1.333662	1.333568	-5.945962
Si	-4.612269	0.000000	-4.612393
Si	-2.306139	-2.306197	-6.918590
Sr	-5.765334	-1.153099	-8.071689
Sr	-3.459204	1.153099	-8.071689
Sr	1.153067	-1.153099	-5.765492
Sr	-1.153063	1.153099	-5.765492
O	0.972481	5.585022	-5.585022
O	-1.333660	5.945962	-7.891219
O	3.278611	3.278825	-5.945962
O	1.333660	3.278825	-7.891219
O	0.972481	8.252159	-8.252159
O	3.639790	8.252159	-5.585022
O	3.639790	5.585022	-8.252159
O	5.945931	5.945962	-5.945962
Si	0.000000	4.612393	-4.612393
Si	2.306131	2.306196	-6.918590
Sr	-1.153065	3.459295	-8.071689
Sr	1.153065	5.765492	-8.071689
Sr	5.765336	3.459295	-5.765492
Sr	3.459206	5.765492	-5.765492
O	5.584750	-3.639764	-0.972629
O	3.278609	-3.278825	-3.278826
O	7.890880	-5.945962	-1.333568
O	5.945929	-5.945962	-3.278826
O	5.584750	-0.972628	-3.639766
O	8.252060	-0.972628	-0.972629
O	8.252060	-3.639764	-3.639766
O	10.558200	-3.278825	-1.333568
Si	4.612269	-4.612393	0.000000
Si	6.918400	-6.918590	-2.306197
Sr	3.459204	-5.765492	-3.459296
Sr	5.765334	-3.459295	-3.459296
Sr	10.377605	-5.765492	-1.153099
Sr	8.071475	-3.459295	-1.153099
O	10.197019	0.972629	-0.972629
O	7.890878	1.333568	-3.278826
O	12.503149	-1.333568	-1.333568
O	10.558198	-1.333568	-3.278826
O	10.197019	3.639766	-3.639766
O	12.864329	3.639766	-0.972629
O	12.864329	0.972629	-3.639766
O	15.170469	1.333568	-1.333568
Si	9.224538	0.000000	0.000000
Si	11.530669	-2.306197	-2.306197
Sr	8.071473	-1.153099	-3.459296
Sr	10.377604	1.153099	-3.459296
Sr	14.989875	-1.153099	-1.153099
Sr	12.683744	1.153099	-1.153099
O	0.972481	-3.639764	-5.585022
O	-1.333660	-3.278825	-7.891219
O	3.278611	-5.945962	-5.945962
O	1.333660	-5.945962	-7.891219
O	0.972481	-0.972628	-8.252159
O	3.639790	-0.972628	-5.585022
O	3.639790	-3.639764	-8.252159
O	5.945931	-3.278825	-5.945962
Si	0.000000	-4.612393	-4.612393
Si	2.306131	-6.918590	-6.918590
Sr	-1.153065	-5.765492	-8.071689
Sr	1.153065	-3.459295	-8.071689
Sr	5.765336	-5.765492	-5.765492
Sr	3.459206	-3.459295	-5.765492
O	5.584750	0.972629	-5.585022
O	3.278609	1.333568	-7.891219
O	7.890880	-1.333568	-5.945962
O	5.945929	-1.333568	-7.891219
O	5.584750	3.639766	-8.252159
O	8.252060	3.639766	-5.585022
O	8.252060	0.972629	-8.252159
O	10.558200	1.333568	-5.945962
Si	4.612269	0.000000	-4.612393
Si	6.918400	-2.306197	-6.918590
Sr	3.459204	-1.153099	-8.071689
Sr	5.765334	1.153099	-8.071689
Sr	10.377605	-1.153099	-5.765492
Sr	8.071475	1.153099	-5.765492
