40

Ag	2.022570	2.022570	2.022570
O	0.000000	2.022570	2.022570
O	2.022570	0.000000	2.022570
O	2.022570	2.022570	0.000000
Pd	0.000000	0.000000	0.000000
Ag	2.022570	2.022570	6.067711
O	0.000000	2.022570	6.067711
O	2.022570	0.000000	6.067711
O	2.022570	2.022570	4.045140
Pd	0.000000	0.000000	4.045140
Ag	2.022570	6.067711	2.022570
O	0.000000	6.067711	2.022570
O	2.022570	4.045140	2.022570
O	2.022570	6.067711	0.000000
Pd	0.000000	4.045140	0.000000
Ag	2.022570	6.067711	6.067711
O	0.000000	6.067711	6.067711
O	2.022570	4.045140	6.067711
O	2.022570	6.067711	4.045140
Pd	0.000000	4.045140	4.045140
Ag	6.067711	2.022570	2.022570
O	4.045140	2.022570	2.022570
O	6.067711	0.000000	2.022570
O	6.067711	2.022570	0.000000
Pd	4.045140	0.000000	0.000000
Ag	6.067711	2.022570	6.067711
O	4.045140	2.022570	6.067711
O	6.067711	0.000000	6.067711
O	6.067711	2.022570	4.045140
Pd	4.045140	0.000000	4.045140
Ag	6.067711	6.067711	2.022570
O	4.045140	6.067711	2.022570
O	6.067711	4.045140	2.022570
O	6.067711	6.067711	0.000000
Pd	4.045140	4.045140	0.000000
Ag	6.067711	6.067711	6.067711
O	4.045140	6.067711	6.067711
O	6.067711	4.045140	6.067711
O	6.067711	6.067711	4.045140
Pd	4.045140	4.045140	4.045140
