40

Ac	0.000000	0.000000	0.000000
O	2.175330	0.000000	2.175330
O	0.000000	2.175330	2.175330
O	2.175330	2.175330	0.000000
Tb_3	2.175330	2.175330	2.175330
Ac	0.000000	0.000000	4.350661
O	2.175330	0.000000	6.525991
O	0.000000	2.175330	6.525991
O	2.175330	2.175330	4.350661
Tb_3	2.175330	2.175330	6.525991
Ac	0.000000	4.350661	0.000000
O	2.175330	4.350661	2.175330
O	0.000000	6.525991	2.175330
O	2.175330	6.525991	0.000000
Tb_3	2.175330	6.525991	2.175330
Ac	0.000000	4.350661	4.350661
O	2.175330	4.350661	6.525991
O	0.000000	6.525991	6.525991
O	2.175330	6.525991	4.350661
Tb_3	2.175330	6.525991	6.525991
Ac	4.350661	0.000000	0.000000
O	6.525991	0.000000	2.175330
O	4.350661	2.175330	2.175330
O	6.525991	2.175330	0.000000
Tb_3	6.525991	2.175330	2.175330
Ac	4.350661	0.000000	4.350661
O	6.525991	0.000000	6.525991
O	4.350661	2.175330	6.525991
O	6.525991	2.175330	4.350661
Tb_3	6.525991	2.175330	6.525991
Ac	4.350661	4.350661	0.000000
O	6.525991	4.350661	2.175330
O	4.350661	6.525991	2.175330
O	6.525991	6.525991	0.000000
Tb_3	6.525991	6.525991	2.175330
Ac	4.350661	4.350661	4.350661
O	6.525991	4.350661	6.525991
O	4.350661	6.525991	6.525991
O	6.525991	6.525991	4.350661
Tb_3	6.525991	6.525991	6.525991
