40

Ge	1.933094	1.933094	1.933094
O	0.000000	1.933094	1.933094
O	1.933094	0.000000	1.933094
O	1.933094	1.933094	0.000000
Sr	0.000000	0.000000	0.000000
Ge	1.933094	1.933094	5.799282
O	0.000000	1.933094	5.799282
O	1.933094	0.000000	5.799282
O	1.933094	1.933094	3.866188
Sr	0.000000	0.000000	3.866188
Ge	1.933094	5.799282	1.933094
O	0.000000	5.799282	1.933094
O	1.933094	3.866188	1.933094
O	1.933094	5.799282	0.000000
Sr	0.000000	3.866188	0.000000
Ge	1.933094	5.799282	5.799282
O	0.000000	5.799282	5.799282
O	1.933094	3.866188	5.799282
O	1.933094	5.799282	3.866188
Sr	0.000000	3.866188	3.866188
Ge	5.799282	1.933094	1.933094
O	3.866188	1.933094	1.933094
O	5.799282	0.000000	1.933094
O	5.799282	1.933094	0.000000
Sr	3.866188	0.000000	0.000000
Ge	5.799282	1.933094	5.799282
O	3.866188	1.933094	5.799282
O	5.799282	0.000000	5.799282
O	5.799282	1.933094	3.866188
Sr	3.866188	0.000000	3.866188
Ge	5.799282	5.799282	1.933094
O	3.866188	5.799282	1.933094
O	5.799282	3.866188	1.933094
O	5.799282	5.799282	0.000000
Sr	3.866188	3.866188	0.000000
Ge	5.799282	5.799282	5.799282
O	3.866188	5.799282	5.799282
O	5.799282	3.866188	5.799282
O	5.799282	5.799282	3.866188
Sr	3.866188	3.866188	3.866188
