40

O	0.000000	2.193007	2.193007
O	2.193007	0.000000	2.193007
O	2.193007	2.193007	0.000000
Pt	0.000000	0.000000	0.000000
Y	2.193007	2.193007	2.193007
O	0.000000	2.193007	6.579021
O	2.193007	0.000000	6.579021
O	2.193007	2.193007	4.386014
Pt	0.000000	0.000000	4.386014
Y	2.193007	2.193007	6.579021
O	0.000000	6.579021	2.193007
O	2.193007	4.386014	2.193007
O	2.193007	6.579021	0.000000
Pt	0.000000	4.386014	0.000000
Y	2.193007	6.579021	2.193007
O	0.000000	6.579021	6.579021
O	2.193007	4.386014	6.579021
O	2.193007	6.579021	4.386014
Pt	0.000000	4.386014	4.386014
Y	2.193007	6.579021	6.579021
O	4.386014	2.193007	2.193007
O	6.579021	0.000000	2.193007
O	6.579021	2.193007	0.000000
Pt	4.386014	0.000000	0.000000
Y	6.579021	2.193007	2.193007
O	4.386014	2.193007	6.579021
O	6.579021	0.000000	6.579021
O	6.579021	2.193007	4.386014
Pt	4.386014	0.000000	4.386014
Y	6.579021	2.193007	6.579021
O	4.386014	6.579021	2.193007
O	6.579021	4.386014	2.193007
O	6.579021	6.579021	0.000000
Pt	4.386014	4.386014	0.000000
Y	6.579021	6.579021	2.193007
O	4.386014	6.579021	6.579021
O	6.579021	4.386014	6.579021
O	6.579021	6.579021	4.386014
Pt	4.386014	4.386014	4.386014
Y	6.579021	6.579021	6.579021
