40

Np	0.000000	0.000000	0.000000
O	2.138660	2.138660	0.000000
O	0.000000	2.138660	2.138660
O	2.138660	0.000000	2.138660
Y	2.138660	2.138660	2.138660
Np	0.000000	0.000000	4.277314
O	2.138660	2.138660	4.277314
O	0.000000	2.138660	6.415974
O	2.138660	0.000000	6.415974
Y	2.138660	2.138660	6.415974
Np	0.000000	4.277314	0.000000
O	2.138660	6.415974	0.000000
O	0.000000	6.415974	2.138660
O	2.138660	4.277314	2.138660
Y	2.138660	6.415974	2.138660
Np	0.000000	4.277314	4.277314
O	2.138660	6.415974	4.277314
O	0.000000	6.415974	6.415974
O	2.138660	4.277314	6.415974
Y	2.138660	6.415974	6.415974
Np	4.277314	0.000000	0.000000
O	6.415974	2.138660	0.000000
O	4.277314	2.138660	2.138660
O	6.415974	0.000000	2.138660
Y	6.415974	2.138660	2.138660
Np	4.277314	0.000000	4.277314
O	6.415974	2.138660	4.277314
O	4.277314	2.138660	6.415974
O	6.415974	0.000000	6.415974
Y	6.415974	2.138660	6.415974
Np	4.277314	4.277314	0.000000
O	6.415974	6.415974	0.000000
O	4.277314	6.415974	2.138660
O	6.415974	4.277314	2.138660
Y	6.415974	6.415974	2.138660
Np	4.277314	4.277314	4.277314
O	6.415974	6.415974	4.277314
O	4.277314	6.415974	6.415974
O	6.415974	4.277314	6.415974
Y	6.415974	6.415974	6.415974
