40

In	2.049158	2.049158	2.049158
Mg	0.000000	0.000000	0.000000
O	0.000000	2.049158	2.049158
O	2.049158	0.000000	2.049158
O	2.049158	2.049158	0.000000
In	2.049158	2.049158	6.147475
Mg	0.000000	0.000000	4.098317
O	0.000000	2.049158	6.147475
O	2.049158	0.000000	6.147475
O	2.049158	2.049158	4.098317
In	2.049158	6.147475	2.049158
Mg	0.000000	4.098317	0.000000
O	0.000000	6.147475	2.049158
O	2.049158	4.098317	2.049158
O	2.049158	6.147475	0.000000
In	2.049158	6.147475	6.147475
Mg	0.000000	4.098317	4.098317
O	0.000000	6.147475	6.147475
O	2.049158	4.098317	6.147475
O	2.049158	6.147475	4.098317
In	6.147475	2.049158	2.049158
Mg	4.098317	0.000000	0.000000
O	4.098317	2.049158	2.049158
O	6.147475	0.000000	2.049158
O	6.147475	2.049158	0.000000
In	6.147475	2.049158	6.147475
Mg	4.098317	0.000000	4.098317
O	4.098317	2.049158	6.147475
O	6.147475	0.000000	6.147475
O	6.147475	2.049158	4.098317
In	6.147475	6.147475	2.049158
Mg	4.098317	4.098317	0.000000
O	4.098317	6.147475	2.049158
O	6.147475	4.098317	2.049158
O	6.147475	6.147475	0.000000
In	6.147475	6.147475	6.147475
Mg	4.098317	4.098317	4.098317
O	4.098317	6.147475	6.147475
O	6.147475	4.098317	6.147475
O	6.147475	6.147475	4.098317
