40

O	2.372353	2.372353	2.372353
Sn	0.000000	0.000000	0.000000
Yb	2.372353	2.372353	0.000000
Yb	2.372353	0.000000	2.372353
Yb	0.000000	2.372353	2.372353
O	2.372353	2.372353	7.117056
Sn	0.000000	0.000000	4.744702
Yb	2.372353	2.372353	4.744702
Yb	2.372353	0.000000	7.117056
Yb	0.000000	2.372353	7.117056
O	2.372353	7.117056	2.372353
Sn	0.000000	4.744702	0.000000
Yb	2.372353	7.117056	0.000000
Yb	2.372353	4.744702	2.372353
Yb	0.000000	7.117056	2.372353
O	2.372353	7.117056	7.117056
Sn	0.000000	4.744702	4.744702
Yb	2.372353	7.117056	4.744702
Yb	2.372353	4.744702	7.117056
Yb	0.000000	7.117056	7.117056
O	7.117056	2.372353	2.372353
Sn	4.744702	0.000000	0.000000
Yb	7.117056	2.372353	0.000000
Yb	7.117056	0.000000	2.372353
Yb	4.744702	2.372353	2.372353
O	7.117056	2.372353	7.117056
Sn	4.744702	0.000000	4.744702
Yb	7.117056	2.372353	4.744702
Yb	7.117056	0.000000	7.117056
Yb	4.744702	2.372353	7.117056
O	7.117056	7.117056	2.372353
Sn	4.744702	4.744702	0.000000
Yb	7.117056	7.117056	0.000000
Yb	7.117056	4.744702	2.372353
Yb	4.744702	7.117056	2.372353
O	7.117056	7.117056	7.117056
Sn	4.744702	4.744702	4.744702
Yb	7.117056	7.117056	4.744702
Yb	7.117056	4.744702	7.117056
Yb	4.744702	7.117056	7.117056
