40

Ba	2.485482	2.485482	2.485482
Ga	0.000000	0.000000	0.000000
O	0.000000	2.485482	2.485482
O	2.485482	0.000000	2.485482
O	2.485482	2.485482	0.000000
Ba	2.485482	2.485482	7.456445
Ga	0.000000	0.000000	4.970964
O	0.000000	2.485482	7.456445
O	2.485482	0.000000	7.456445
O	2.485482	2.485482	4.970964
Ba	2.485482	7.456445	2.485482
Ga	0.000000	4.970964	0.000000
O	0.000000	7.456445	2.485482
O	2.485482	4.970964	2.485482
O	2.485482	7.456445	0.000000
Ba	2.485482	7.456445	7.456445
Ga	0.000000	4.970964	4.970964
O	0.000000	7.456445	7.456445
O	2.485482	4.970964	7.456445
O	2.485482	7.456445	4.970964
Ba	7.456445	2.485482	2.485482
Ga	4.970964	0.000000	0.000000
O	4.970964	2.485482	2.485482
O	7.456445	0.000000	2.485482
O	7.456445	2.485482	0.000000
Ba	7.456445	2.485482	7.456445
Ga	4.970964	0.000000	4.970964
O	4.970964	2.485482	7.456445
O	7.456445	0.000000	7.456445
O	7.456445	2.485482	4.970964
Ba	7.456445	7.456445	2.485482
Ga	4.970964	4.970964	0.000000
O	4.970964	7.456445	2.485482
O	7.456445	4.970964	2.485482
O	7.456445	7.456445	0.000000
Ba	7.456445	7.456445	7.456445
Ga	4.970964	4.970964	4.970964
O	4.970964	7.456445	7.456445
O	7.456445	4.970964	7.456445
O	7.456445	7.456445	4.970964
