40

K	0.000000	0.000000	0.000000
O	2.282269	2.282269	0.000000
O	2.282269	0.000000	2.282269
O	0.000000	2.282269	2.282269
Sm	2.282269	2.282269	2.282269
K	0.000000	0.000000	4.564538
O	2.282269	2.282269	4.564538
O	2.282269	0.000000	6.846807
O	0.000000	2.282269	6.846807
Sm	2.282269	2.282269	6.846807
K	0.000000	4.564538	0.000000
O	2.282269	6.846807	0.000000
O	2.282269	4.564538	2.282269
O	0.000000	6.846807	2.282269
Sm	2.282269	6.846807	2.282269
K	0.000000	4.564538	4.564538
O	2.282269	6.846807	4.564538
O	2.282269	4.564538	6.846807
O	0.000000	6.846807	6.846807
Sm	2.282269	6.846807	6.846807
K	4.564538	0.000000	0.000000
O	6.846807	2.282269	0.000000
O	6.846807	0.000000	2.282269
O	4.564538	2.282269	2.282269
Sm	6.846807	2.282269	2.282269
K	4.564538	0.000000	4.564538
O	6.846807	2.282269	4.564538
O	6.846807	0.000000	6.846807
O	4.564538	2.282269	6.846807
Sm	6.846807	2.282269	6.846807
K	4.564538	4.564538	0.000000
O	6.846807	6.846807	0.000000
O	6.846807	4.564538	2.282269
O	4.564538	6.846807	2.282269
Sm	6.846807	6.846807	2.282269
K	4.564538	4.564538	4.564538
O	6.846807	6.846807	4.564538
O	6.846807	4.564538	6.846807
O	4.564538	6.846807	6.846807
Sm	6.846807	6.846807	6.846807
