112

Ce	0.000000	0.000000	0.000000
Ce	2.723279	-2.725619	-2.725619
O	1.289587	1.291579	-1.291579
O	4.012866	-1.434050	-1.434050
O	-1.433702	1.434050	-4.017199
O	1.433702	-1.434050	-4.017199
O	1.289587	4.159679	-4.159679
O	4.156981	4.159679	-1.291579
O	4.156981	1.291579	-4.159679
O	6.880271	1.434050	-1.434050
Rb	-1.361645	-1.362820	-4.088439
Rb	6.808213	-1.362820	-1.362820
Rb	1.361645	1.362820	-4.088439
Rb	4.084934	1.362820	-1.362820
Ce	5.446571	5.451249	0.000000
Ce	8.169850	2.725630	-2.725619
O	6.736158	6.742828	-1.291579
O	9.459437	4.017199	-1.434050
O	4.012869	6.885299	-4.017199
O	6.880273	4.017199	-4.017199
O	6.736158	9.610928	-4.159679
O	9.603552	9.610928	-1.291579
O	9.603552	6.742828	-4.159679
O	12.326842	6.885299	-1.434050
Rb	4.084927	4.088429	-4.088439
Rb	12.254784	4.088429	-1.362820
Rb	6.808216	6.814069	-4.088439
Rb	9.531505	6.814069	-1.362820
Ce	-5.446571	0.000000	-5.451249
Ce	-2.723292	-2.725619	-8.176868
O	-4.156984	1.291579	-6.742828
O	-1.433705	-1.434050	-6.885299
O	-6.880273	1.434050	-9.468448
O	-4.012869	-1.434050	-9.468448
O	-4.156984	4.159679	-9.610928
O	-1.289590	4.159679	-6.742828
O	-1.289590	1.291579	-9.610928
O	1.433699	1.434050	-6.885299
Rb	-6.808216	-1.362820	-9.539688
Rb	1.361642	-1.362820	-6.814069
Rb	-4.084927	1.362820	-9.539688
Rb	-1.361637	1.362820	-6.814069
Ce	0.000000	5.451249	-5.451249
Ce	2.723279	2.725630	-8.176868
O	1.289587	6.742828	-6.742828
O	4.012866	4.017199	-6.885299
O	-1.433702	6.885299	-9.468448
O	1.433702	4.017199	-9.468448
O	1.289587	9.610928	-9.610928
O	4.156981	9.610928	-6.742828
O	4.156981	6.742828	-9.610928
O	6.880271	6.885299	-6.885299
Rb	-1.361645	4.088429	-9.539688
Rb	6.808213	4.088429	-6.814069
Rb	1.361645	6.814069	-9.539688
Rb	4.084934	6.814069	-6.814069
Ce	5.446571	-5.451249	0.000000
Ce	8.169850	-8.176868	-2.725619
O	6.736158	-4.159670	-1.291579
O	9.459437	-6.885299	-1.434050
O	4.012869	-4.017199	-4.017199
O	6.880273	-6.885299	-4.017199
O	6.736158	-1.291570	-4.159679
O	9.603552	-1.291570	-1.291579
O	9.603552	-4.159670	-4.159679
O	12.326842	-4.017199	-1.434050
Rb	4.084927	-6.814069	-4.088439
Rb	12.254784	-6.814069	-1.362820
Rb	6.808216	-4.088429	-4.088439
Rb	9.531505	-4.088429	-1.362820
Ce	10.893142	0.000000	0.000000
Ce	13.616421	-2.725619	-2.725619
O	12.182729	1.291579	-1.291579
O	14.906008	-1.434050	-1.434050
O	9.459440	1.434050	-4.017199
O	12.326844	-1.434050	-4.017199
O	12.182729	4.159679	-4.159679
O	15.050124	4.159679	-1.291579
O	15.050124	1.291579	-4.159679
O	17.773413	1.434050	-1.434050
Rb	9.531498	-1.362820	-4.088439
Rb	17.701355	-1.362820	-1.362820
Rb	12.254787	1.362820	-4.088439
Rb	14.978076	1.362820	-1.362820
Ce	0.000000	-5.451249	-5.451249
Ce	2.723279	-8.176868	-8.176868
O	1.289587	-4.159670	-6.742828
O	4.012866	-6.885299	-6.885299
O	-1.433702	-4.017199	-9.468448
O	1.433702	-6.885299	-9.468448
O	1.289587	-1.291570	-9.610928
O	4.156981	-1.291570	-6.742828
O	4.156981	-4.159670	-9.610928
O	6.880271	-4.017199	-6.885299
Rb	-1.361645	-6.814069	-9.539688
Rb	6.808213	-6.814069	-6.814069
Rb	1.361645	-4.088429	-9.539688
Rb	4.084934	-4.088429	-6.814069
Ce	5.446571	0.000000	-5.451249
Ce	8.169850	-2.725619	-8.176868
O	6.736158	1.291579	-6.742828
O	9.459437	-1.434050	-6.885299
O	4.012869	1.434050	-9.468448
O	6.880273	-1.434050	-9.468448
O	6.736158	4.159679	-9.610928
O	9.603552	4.159679	-6.742828
O	9.603552	1.291579	-9.610928
O	12.326842	1.434050	-6.885299
Rb	4.084927	-1.362820	-9.539688
Rb	12.254784	-1.362820	-6.814069
Rb	6.808216	1.362820	-9.539688
Rb	9.531505	1.362820	-6.814069
