112

Co	0.000000	0.000000	0.000000
Co	2.264863	-2.265219	-2.265219
Lu	-1.132432	-1.132610	-3.397839
Lu	5.662168	-1.132610	-1.132610
Lu	3.397305	1.132610	-1.132610
Lu	1.132432	1.132610	-3.397839
O	3.459992	-1.069507	-1.069507
O	-1.069735	1.069507	-3.460941
O	1.069735	-1.069507	-3.460941
O	1.195128	1.195712	-1.195712
O	5.599472	1.069507	-1.069507
O	1.195128	3.334726	-3.334726
O	3.334608	1.195712	-3.334726
O	3.334608	3.334726	-1.195712
Co	4.529734	4.530445	0.000000
Co	6.794597	2.265226	-2.265219
Lu	3.397302	3.397835	-3.397839
Lu	10.191902	3.397835	-1.132610
Lu	7.927039	5.663055	-1.132610
Lu	5.662165	5.663055	-3.397839
O	7.989725	3.460938	-1.069507
O	3.459999	5.599952	-3.460941
O	5.599468	3.460938	-3.460941
O	5.724862	5.726157	-1.195712
O	10.129205	5.599952	-1.069507
O	5.724862	7.865171	-3.334726
O	7.864342	5.726157	-3.334726
O	7.864342	7.865171	-1.195712
Co	-4.529734	0.000000	-4.530445
Co	-2.264870	-2.265219	-6.795664
Lu	-5.662165	-1.132610	-7.928284
Lu	1.132435	-1.132610	-5.663055
Lu	-1.132429	1.132610	-5.663055
Lu	-3.397302	1.132610	-7.928284
O	-1.069742	-1.069507	-5.599952
O	-5.599468	1.069507	-7.991387
O	-3.459999	-1.069507	-7.991387
O	-3.334605	1.195712	-5.726157
O	1.069738	1.069507	-5.599952
O	-3.334605	3.334726	-7.865171
O	-1.195125	1.195712	-7.865171
O	-1.195125	3.334726	-5.726157
Co	0.000000	4.530445	-4.530445
Co	2.264863	2.265226	-6.795664
Lu	-1.132432	3.397835	-7.928284
Lu	5.662168	3.397835	-5.663055
Lu	3.397305	5.663055	-5.663055
Lu	1.132432	5.663055	-7.928284
O	3.459992	3.460938	-5.599952
O	-1.069735	5.599952	-7.991387
O	1.069735	3.460938	-7.991387
O	1.195128	5.726157	-5.726157
O	5.599472	5.599952	-5.599952
O	1.195128	7.865171	-7.865171
O	3.334608	5.726157	-7.865171
O	3.334608	7.865171	-5.726157
Co	4.529734	-4.530445	0.000000
Co	6.794597	-6.795664	-2.265219
Lu	3.397302	-5.663055	-3.397839
Lu	10.191902	-5.663055	-1.132610
Lu	7.927039	-3.397835	-1.132610
Lu	5.662165	-3.397835	-3.397839
O	7.989725	-5.599952	-1.069507
O	3.459999	-3.460938	-3.460941
O	5.599468	-5.599952	-3.460941
O	5.724862	-3.334733	-1.195712
O	10.129205	-3.460938	-1.069507
O	5.724862	-1.195719	-3.334726
O	7.864342	-3.334733	-3.334726
O	7.864342	-1.195719	-1.195712
Co	9.059467	0.000000	0.000000
Co	11.324331	-2.265219	-2.265219
Lu	7.927036	-1.132610	-3.397839
Lu	14.721635	-1.132610	-1.132610
Lu	12.456772	1.132610	-1.132610
Lu	10.191899	1.132610	-3.397839
O	12.519459	-1.069507	-1.069507
O	7.989732	1.069507	-3.460941
O	10.129202	-1.069507	-3.460941
O	10.254596	1.195712	-1.195712
O	14.658939	1.069507	-1.069507
O	10.254596	3.334726	-3.334726
O	12.394075	1.195712	-3.334726
O	12.394075	3.334726	-1.195712
Co	0.000000	-4.530445	-4.530445
Co	2.264863	-6.795664	-6.795664
Lu	-1.132432	-5.663055	-7.928284
Lu	5.662168	-5.663055	-5.663055
Lu	3.397305	-3.397835	-5.663055
Lu	1.132432	-3.397835	-7.928284
O	3.459992	-5.599952	-5.599952
O	-1.069735	-3.460938	-7.991387
O	1.069735	-5.599952	-7.991387
O	1.195128	-3.334733	-5.726157
O	5.599472	-3.460938	-5.599952
O	1.195128	-1.195719	-7.865171
O	3.334608	-3.334733	-7.865171
O	3.334608	-1.195719	-5.726157
Co	4.529734	0.000000	-4.530445
Co	6.794597	-2.265219	-6.795664
Lu	3.397302	-1.132610	-7.928284
Lu	10.191902	-1.132610	-5.663055
Lu	7.927039	1.132610	-5.663055
Lu	5.662165	1.132610	-7.928284
O	7.989725	-1.069507	-5.599952
O	3.459999	1.069507	-7.991387
O	5.599468	-1.069507	-7.991387
O	5.724862	1.195712	-5.726157
O	10.129205	1.069507	-5.599952
O	5.724862	3.334726	-7.865171
O	7.864342	1.195712	-7.865171
O	7.864342	3.334726	-5.726157
