40

Be	1.703690	1.703690	1.703690
Mo_pv	0.000000	0.000000	0.000000
O	1.703690	1.703690	0.000000
O	0.000000	1.703690	1.703690
O	1.703690	0.000000	1.703690
Be	1.703690	1.703690	5.111072
Mo_pv	0.000000	0.000000	3.407382
O	1.703690	1.703690	3.407382
O	0.000000	1.703690	5.111072
O	1.703690	0.000000	5.111072
Be	1.703690	5.111072	1.703690
Mo_pv	0.000000	3.407382	0.000000
O	1.703690	5.111072	0.000000
O	0.000000	5.111072	1.703690
O	1.703690	3.407382	1.703690
Be	1.703690	5.111072	5.111072
Mo_pv	0.000000	3.407382	3.407382
O	1.703690	5.111072	3.407382
O	0.000000	5.111072	5.111072
O	1.703690	3.407382	5.111072
Be	5.111072	1.703690	1.703690
Mo_pv	3.407382	0.000000	0.000000
O	5.111072	1.703690	0.000000
O	3.407382	1.703690	1.703690
O	5.111072	0.000000	1.703690
Be	5.111072	1.703690	5.111072
Mo_pv	3.407382	0.000000	3.407382
O	5.111072	1.703690	3.407382
O	3.407382	1.703690	5.111072
O	5.111072	0.000000	5.111072
Be	5.111072	5.111072	1.703690
Mo_pv	3.407382	3.407382	0.000000
O	5.111072	5.111072	0.000000
O	3.407382	5.111072	1.703690
O	5.111072	3.407382	1.703690
Be	5.111072	5.111072	5.111072
Mo_pv	3.407382	3.407382	3.407382
O	5.111072	5.111072	3.407382
O	3.407382	5.111072	5.111072
O	5.111072	3.407382	5.111072
