40

Cl	1.995705	1.995705	1.995705
O	0.000000	1.995705	1.995705
O	1.995705	0.000000	1.995705
O	1.995705	1.995705	0.000000
Sn	0.000000	0.000000	0.000000
Cl	1.995705	1.995705	5.987115
O	0.000000	1.995705	5.987115
O	1.995705	0.000000	5.987115
O	1.995705	1.995705	3.991410
Sn	0.000000	0.000000	3.991410
Cl	1.995705	5.987115	1.995705
O	0.000000	5.987115	1.995705
O	1.995705	3.991410	1.995705
O	1.995705	5.987115	0.000000
Sn	0.000000	3.991410	0.000000
Cl	1.995705	5.987115	5.987115
O	0.000000	5.987115	5.987115
O	1.995705	3.991410	5.987115
O	1.995705	5.987115	3.991410
Sn	0.000000	3.991410	3.991410
Cl	5.987115	1.995705	1.995705
O	3.991410	1.995705	1.995705
O	5.987115	0.000000	1.995705
O	5.987115	1.995705	0.000000
Sn	3.991410	0.000000	0.000000
Cl	5.987115	1.995705	5.987115
O	3.991410	1.995705	5.987115
O	5.987115	0.000000	5.987115
O	5.987115	1.995705	3.991410
Sn	3.991410	0.000000	3.991410
Cl	5.987115	5.987115	1.995705
O	3.991410	5.987115	1.995705
O	5.987115	3.991410	1.995705
O	5.987115	5.987115	0.000000
Sn	3.991410	3.991410	0.000000
Cl	5.987115	5.987115	5.987115
O	3.991410	5.987115	5.987115
O	5.987115	3.991410	5.987115
O	5.987115	5.987115	3.991410
Sn	3.991410	3.991410	3.991410
