40

O	2.197419	2.197419	0.000000
O	2.197419	0.000000	2.197419
O	0.000000	2.197419	2.197419
Rb	2.197419	2.197419	2.197419
Th	0.000000	0.000000	0.000000
O	2.197419	2.197419	4.394839
O	2.197419	0.000000	6.592258
O	0.000000	2.197419	6.592258
Rb	2.197419	2.197419	6.592258
Th	0.000000	0.000000	4.394839
O	2.197419	6.592258	0.000000
O	2.197419	4.394839	2.197419
O	0.000000	6.592258	2.197419
Rb	2.197419	6.592258	2.197419
Th	0.000000	4.394839	0.000000
O	2.197419	6.592258	4.394839
O	2.197419	4.394839	6.592258
O	0.000000	6.592258	6.592258
Rb	2.197419	6.592258	6.592258
Th	0.000000	4.394839	4.394839
O	6.592258	2.197419	0.000000
O	6.592258	0.000000	2.197419
O	4.394839	2.197419	2.197419
Rb	6.592258	2.197419	2.197419
Th	4.394839	0.000000	0.000000
O	6.592258	2.197419	4.394839
O	6.592258	0.000000	6.592258
O	4.394839	2.197419	6.592258
Rb	6.592258	2.197419	6.592258
Th	4.394839	0.000000	4.394839
O	6.592258	6.592258	0.000000
O	6.592258	4.394839	2.197419
O	4.394839	6.592258	2.197419
Rb	6.592258	6.592258	2.197419
Th	4.394839	4.394839	0.000000
O	6.592258	6.592258	4.394839
O	6.592258	4.394839	6.592258
O	4.394839	6.592258	6.592258
Rb	6.592258	6.592258	6.592258
Th	4.394839	4.394839	4.394839
