112

Bi	0.000000	0.000000	0.000000
Bi	2.455186	-2.455693	-2.455693
O	-1.122826	1.122392	-3.788994
O	3.787556	-1.122392	-1.122392
O	1.122826	-1.122392	-3.788994
O	1.332370	1.333301	-1.333301
O	6.033198	1.122392	-1.122392
O	1.332370	3.578085	-3.578085
O	3.578012	3.578085	-1.333301
O	3.578012	1.333301	-3.578085
Sn	-1.227593	-1.227851	-3.683544
Sn	6.137975	-1.227851	-1.227851
Sn	3.682779	1.227852	-1.227851
Sn	1.227593	1.227851	-3.683544
Bi	4.910378	4.911388	0.000000
Bi	7.365564	2.455695	-2.455693
O	3.787552	6.033780	-3.788994
O	8.697934	3.788995	-1.122392
O	6.033204	3.788995	-3.788994
O	6.242748	6.244688	-1.333301
O	10.943576	6.033780	-1.122392
O	6.242748	8.489473	-3.578085
O	8.488390	8.489473	-1.333301
O	8.488390	6.244688	-3.578085
Sn	3.682785	3.683536	-3.683544
Sn	11.048353	3.683536	-1.227851
Sn	8.593157	6.139239	-1.227851
Sn	6.137971	6.139239	-3.683544
Bi	-4.910378	0.000000	-4.911388
Bi	-2.455192	-2.455693	-7.367081
O	-6.033204	1.122392	-8.700381
O	-1.122822	-1.122392	-6.033780
O	-3.787552	-1.122392	-8.700381
O	-3.578008	1.333301	-6.244688
O	1.122820	1.122392	-6.033780
O	-3.578008	3.578085	-8.489473
O	-1.332366	3.578085	-6.244688
O	-1.332366	1.333301	-8.489473
Sn	-6.137971	-1.227851	-8.594932
Sn	1.227597	-1.227851	-6.139239
Sn	-1.227599	1.227852	-6.139239
Sn	-3.682785	1.227851	-8.594932
Bi	0.000000	4.911388	-4.911388
Bi	2.455186	2.455695	-7.367081
O	-1.122826	6.033780	-8.700381
O	3.787556	3.788995	-6.033780
O	1.122826	3.788995	-8.700381
O	1.332370	6.244688	-6.244688
O	6.033198	6.033780	-6.033780
O	1.332370	8.489473	-8.489473
O	3.578012	8.489473	-6.244688
O	3.578012	6.244688	-8.489473
Sn	-1.227593	3.683536	-8.594932
Sn	6.137975	3.683536	-6.139239
Sn	3.682779	6.139239	-6.139239
Sn	1.227593	6.139239	-8.594932
Bi	4.910378	-4.911388	0.000000
Bi	7.365564	-7.367081	-2.455693
O	3.787552	-3.788995	-3.788994
O	8.697934	-6.033780	-1.122392
O	6.033204	-6.033780	-3.788994
O	6.242748	-3.578087	-1.333301
O	10.943576	-3.788995	-1.122392
O	6.242748	-1.333302	-3.578085
O	8.488390	-1.333302	-1.333301
O	8.488390	-3.578087	-3.578085
Sn	3.682785	-6.139239	-3.683544
Sn	11.048353	-6.139239	-1.227851
Sn	8.593157	-3.683536	-1.227851
Sn	6.137971	-3.683536	-3.683544
Bi	9.820756	0.000000	0.000000
Bi	12.275942	-2.455693	-2.455693
O	8.697930	1.122392	-3.788994
O	13.608312	-1.122392	-1.122392
O	10.943582	-1.122392	-3.788994
O	11.153126	1.333301	-1.333301
O	15.853955	1.122392	-1.122392
O	11.153126	3.578085	-3.578085
O	13.398768	3.578085	-1.333301
O	13.398768	1.333301	-3.578085
Sn	8.593163	-1.227851	-3.683544
Sn	15.958731	-1.227851	-1.227851
Sn	13.503535	1.227852	-1.227851
Sn	11.048349	1.227851	-3.683544
Bi	0.000000	-4.911388	-4.911388
Bi	2.455186	-7.367081	-7.367081
O	-1.122826	-3.788995	-8.700381
O	3.787556	-6.033780	-6.033780
O	1.122826	-6.033780	-8.700381
O	1.332370	-3.578087	-6.244688
O	6.033198	-3.788995	-6.033780
O	1.332370	-1.333302	-8.489473
O	3.578012	-1.333302	-6.244688
O	3.578012	-3.578087	-8.489473
Sn	-1.227593	-6.139239	-8.594932
Sn	6.137975	-6.139239	-6.139239
Sn	3.682779	-3.683536	-6.139239
Sn	1.227593	-3.683536	-8.594932
Bi	4.910378	0.000000	-4.911388
Bi	7.365564	-2.455693	-7.367081
O	3.787552	1.122392	-8.700381
O	8.697934	-1.122392	-6.033780
O	6.033204	-1.122392	-8.700381
O	6.242748	1.333301	-6.244688
O	10.943576	1.122392	-6.033780
O	6.242748	3.578085	-8.489473
O	8.488390	3.578085	-6.244688
O	8.488390	1.333301	-8.489473
Sn	3.682785	-1.227851	-8.594932
Sn	11.048353	-1.227851	-6.139239
Sn	8.593157	1.227852	-6.139239
Sn	6.137971	1.227851	-8.594932
