40

Ho	2.128108	2.128108	2.128108
O	2.128108	2.128108	0.000000
O	2.128108	0.000000	2.128108
O	0.000000	2.128108	2.128108
Pa	0.000000	0.000000	0.000000
Ho	2.128108	2.128108	6.384325
O	2.128108	2.128108	4.256217
O	2.128108	0.000000	6.384325
O	0.000000	2.128108	6.384325
Pa	0.000000	0.000000	4.256217
Ho	2.128108	6.384325	2.128108
O	2.128108	6.384325	0.000000
O	2.128108	4.256217	2.128108
O	0.000000	6.384325	2.128108
Pa	0.000000	4.256217	0.000000
Ho	2.128108	6.384325	6.384325
O	2.128108	6.384325	4.256217
O	2.128108	4.256217	6.384325
O	0.000000	6.384325	6.384325
Pa	0.000000	4.256217	4.256217
Ho	6.384325	2.128108	2.128108
O	6.384325	2.128108	0.000000
O	6.384325	0.000000	2.128108
O	4.256217	2.128108	2.128108
Pa	4.256217	0.000000	0.000000
Ho	6.384325	2.128108	6.384325
O	6.384325	2.128108	4.256217
O	6.384325	0.000000	6.384325
O	4.256217	2.128108	6.384325
Pa	4.256217	0.000000	4.256217
Ho	6.384325	6.384325	2.128108
O	6.384325	6.384325	0.000000
O	6.384325	4.256217	2.128108
O	4.256217	6.384325	2.128108
Pa	4.256217	4.256217	0.000000
Ho	6.384325	6.384325	6.384325
O	6.384325	6.384325	4.256217
O	6.384325	4.256217	6.384325
O	4.256217	6.384325	6.384325
Pa	4.256217	4.256217	4.256217
