40

Ho	2.147230	2.147230	2.147230
O	2.147230	2.147230	0.000000
O	2.147230	0.000000	2.147230
O	0.000000	2.147230	2.147230
Pa	0.000000	0.000000	0.000000
Ho	2.147230	2.147230	6.441691
O	2.147230	2.147230	4.294461
O	2.147230	0.000000	6.441691
O	0.000000	2.147230	6.441691
Pa	0.000000	0.000000	4.294461
Ho	2.147230	6.441691	2.147230
O	2.147230	6.441691	0.000000
O	2.147230	4.294461	2.147230
O	0.000000	6.441691	2.147230
Pa	0.000000	4.294461	0.000000
Ho	2.147230	6.441691	6.441691
O	2.147230	6.441691	4.294461
O	2.147230	4.294461	6.441691
O	0.000000	6.441691	6.441691
Pa	0.000000	4.294461	4.294461
Ho	6.441691	2.147230	2.147230
O	6.441691	2.147230	0.000000
O	6.441691	0.000000	2.147230
O	4.294461	2.147230	2.147230
Pa	4.294461	0.000000	0.000000
Ho	6.441691	2.147230	6.441691
O	6.441691	2.147230	4.294461
O	6.441691	0.000000	6.441691
O	4.294461	2.147230	6.441691
Pa	4.294461	0.000000	4.294461
Ho	6.441691	6.441691	2.147230
O	6.441691	6.441691	0.000000
O	6.441691	4.294461	2.147230
O	4.294461	6.441691	2.147230
Pa	4.294461	4.294461	0.000000
Ho	6.441691	6.441691	6.441691
O	6.441691	6.441691	4.294461
O	6.441691	4.294461	6.441691
O	4.294461	6.441691	6.441691
Pa	4.294461	4.294461	4.294461
