40

O	0.000000	2.018081	2.018081
O	2.018081	0.000000	2.018081
O	2.018081	2.018081	0.000000
S	0.000000	0.000000	0.000000
Ta	2.018081	2.018081	2.018081
O	0.000000	2.018081	6.054244
O	2.018081	0.000000	6.054244
O	2.018081	2.018081	4.036163
S	0.000000	0.000000	4.036163
Ta	2.018081	2.018081	6.054244
O	0.000000	6.054244	2.018081
O	2.018081	4.036163	2.018081
O	2.018081	6.054244	0.000000
S	0.000000	4.036163	0.000000
Ta	2.018081	6.054244	2.018081
O	0.000000	6.054244	6.054244
O	2.018081	4.036163	6.054244
O	2.018081	6.054244	4.036163
S	0.000000	4.036163	4.036163
Ta	2.018081	6.054244	6.054244
O	4.036163	2.018081	2.018081
O	6.054244	0.000000	2.018081
O	6.054244	2.018081	0.000000
S	4.036163	0.000000	0.000000
Ta	6.054244	2.018081	2.018081
O	4.036163	2.018081	6.054244
O	6.054244	0.000000	6.054244
O	6.054244	2.018081	4.036163
S	4.036163	0.000000	4.036163
Ta	6.054244	2.018081	6.054244
O	4.036163	6.054244	2.018081
O	6.054244	4.036163	2.018081
O	6.054244	6.054244	0.000000
S	4.036163	4.036163	0.000000
Ta	6.054244	6.054244	2.018081
O	4.036163	6.054244	6.054244
O	6.054244	4.036163	6.054244
O	6.054244	6.054244	4.036163
S	4.036163	4.036163	4.036163
Ta	6.054244	6.054244	6.054244
