40

Ba	0.000000	0.000000	0.000000
O	0.000000	2.059286	2.059286
O	2.059286	0.000000	2.059286
O	2.059286	2.059286	0.000000
Tc	2.059286	2.059286	2.059286
Ba	0.000000	0.000000	4.118571
O	0.000000	2.059286	6.177857
O	2.059286	0.000000	6.177857
O	2.059286	2.059286	4.118571
Tc	2.059286	2.059286	6.177857
Ba	0.000000	4.118571	0.000000
O	0.000000	6.177857	2.059286
O	2.059286	4.118571	2.059286
O	2.059286	6.177857	0.000000
Tc	2.059286	6.177857	2.059286
Ba	0.000000	4.118571	4.118571
O	0.000000	6.177857	6.177857
O	2.059286	4.118571	6.177857
O	2.059286	6.177857	4.118571
Tc	2.059286	6.177857	6.177857
Ba	4.118571	0.000000	0.000000
O	4.118571	2.059286	2.059286
O	6.177857	0.000000	2.059286
O	6.177857	2.059286	0.000000
Tc	6.177857	2.059286	2.059286
Ba	4.118571	0.000000	4.118571
O	4.118571	2.059286	6.177857
O	6.177857	0.000000	6.177857
O	6.177857	2.059286	4.118571
Tc	6.177857	2.059286	6.177857
Ba	4.118571	4.118571	0.000000
O	4.118571	6.177857	2.059286
O	6.177857	4.118571	2.059286
O	6.177857	6.177857	0.000000
Tc	6.177857	6.177857	2.059286
Ba	4.118571	4.118571	4.118571
O	4.118571	6.177857	6.177857
O	6.177857	4.118571	6.177857
O	6.177857	6.177857	4.118571
Tc	6.177857	6.177857	6.177857
