40

Ba	0.000000	0.000000	0.000000
Na	2.165277	2.165277	2.165277
O	0.000000	2.165277	2.165277
O	2.165277	0.000000	2.165277
O	2.165277	2.165277	0.000000
Ba	0.000000	0.000000	4.330555
Na	2.165277	2.165277	6.495832
O	0.000000	2.165277	6.495832
O	2.165277	0.000000	6.495832
O	2.165277	2.165277	4.330555
Ba	0.000000	4.330555	0.000000
Na	2.165277	6.495832	2.165277
O	0.000000	6.495832	2.165277
O	2.165277	4.330555	2.165277
O	2.165277	6.495832	0.000000
Ba	0.000000	4.330555	4.330555
Na	2.165277	6.495832	6.495832
O	0.000000	6.495832	6.495832
O	2.165277	4.330555	6.495832
O	2.165277	6.495832	4.330555
Ba	4.330555	0.000000	0.000000
Na	6.495832	2.165277	2.165277
O	4.330555	2.165277	2.165277
O	6.495832	0.000000	2.165277
O	6.495832	2.165277	0.000000
Ba	4.330555	0.000000	4.330555
Na	6.495832	2.165277	6.495832
O	4.330555	2.165277	6.495832
O	6.495832	0.000000	6.495832
O	6.495832	2.165277	4.330555
Ba	4.330555	4.330555	0.000000
Na	6.495832	6.495832	2.165277
O	4.330555	6.495832	2.165277
O	6.495832	4.330555	2.165277
O	6.495832	6.495832	0.000000
Ba	4.330555	4.330555	4.330555
Na	6.495832	6.495832	6.495832
O	4.330555	6.495832	6.495832
O	6.495832	4.330555	6.495832
O	6.495832	6.495832	4.330555
