40

F	0.000000	2.072026	2.072026
F	2.072026	0.000000	2.072026
F	2.072026	2.072026	0.000000
O	0.000000	0.000000	0.000000
Pd	2.072026	2.072026	2.072026
F	0.000000	2.072026	6.216079
F	2.072026	0.000000	6.216079
F	2.072026	2.072026	4.144053
O	0.000000	0.000000	4.144053
Pd	2.072026	2.072026	6.216079
F	0.000000	6.216079	2.072026
F	2.072026	4.144053	2.072026
F	2.072026	6.216079	0.000000
O	0.000000	4.144053	0.000000
Pd	2.072026	6.216079	2.072026
F	0.000000	6.216079	6.216079
F	2.072026	4.144053	6.216079
F	2.072026	6.216079	4.144053
O	0.000000	4.144053	4.144053
Pd	2.072026	6.216079	6.216079
F	4.144053	2.072026	2.072026
F	6.216079	0.000000	2.072026
F	6.216079	2.072026	0.000000
O	4.144053	0.000000	0.000000
Pd	6.216079	2.072026	2.072026
F	4.144053	2.072026	6.216079
F	6.216079	0.000000	6.216079
F	6.216079	2.072026	4.144053
O	4.144053	0.000000	4.144053
Pd	6.216079	2.072026	6.216079
F	4.144053	6.216079	2.072026
F	6.216079	4.144053	2.072026
F	6.216079	6.216079	0.000000
O	4.144053	4.144053	0.000000
Pd	6.216079	6.216079	2.072026
F	4.144053	6.216079	6.216079
F	6.216079	4.144053	6.216079
F	6.216079	6.216079	4.144053
O	4.144053	4.144053	4.144053
Pd	6.216079	6.216079	6.216079
