112

O	3.404532	-1.018402	-1.018402
O	-1.018935	1.018402	-3.405502
O	1.018935	-1.018402	-3.405502
O	1.192794	1.193550	-1.193550
O	5.442401	1.018402	-1.018402
O	1.192794	3.230354	-3.230354
O	3.230673	3.230354	-1.193550
O	3.230673	1.193550	-3.230354
Te	0.000000	0.000000	0.000000
Te	2.211738	-2.211952	-2.211952
Zn	-1.105869	-1.105976	-3.317928
Zn	3.317597	1.105976	-1.105976
Zn	5.529336	-1.105976	-1.105976
Zn	1.105869	1.105976	-3.317928
O	7.828001	3.405502	-1.018402
O	3.404534	5.442306	-3.405502
O	5.442404	3.405502	-3.405502
O	5.616263	5.617453	-1.193550
O	9.865870	5.442306	-1.018402
O	5.616263	7.654257	-3.230354
O	7.654142	7.654257	-1.193550
O	7.654142	5.617453	-3.230354
Te	4.423469	4.423904	0.000000
Te	6.635207	2.211952	-2.211952
Zn	3.317600	3.317928	-3.317928
Zn	7.741067	5.529880	-1.105976
Zn	9.952805	3.317928	-1.105976
Zn	5.529338	5.529880	-3.317928
O	-1.018937	-1.018402	-5.442306
O	-5.442404	1.018402	-7.829405
O	-3.404534	-1.018402	-7.829405
O	-3.230676	1.193550	-5.617453
O	1.018932	1.018402	-5.442306
O	-3.230676	3.230354	-7.654257
O	-1.192796	3.230354	-5.617453
O	-1.192796	1.193550	-7.654257
Te	-4.423469	0.000000	-4.423904
Te	-2.211731	-2.211952	-6.635855
Zn	-5.529338	-1.105976	-7.741831
Zn	-1.105872	1.105976	-5.529880
Zn	1.105866	-1.105976	-5.529880
Zn	-3.317600	1.105976	-7.741831
O	3.404532	3.405502	-5.442306
O	-1.018935	5.442306	-7.829405
O	1.018935	3.405502	-7.829405
O	1.192794	5.617453	-5.617453
O	5.442401	5.442306	-5.442306
O	1.192794	7.654257	-7.654257
O	3.230673	7.654257	-5.617453
O	3.230673	5.617453	-7.654257
Te	0.000000	4.423904	-4.423904
Te	2.211738	2.211952	-6.635855
Zn	-1.105869	3.317928	-7.741831
Zn	3.317597	5.529880	-5.529880
Zn	5.529336	3.317928	-5.529880
Zn	1.105869	5.529880	-7.741831
O	7.828001	-5.442306	-1.018402
O	3.404534	-3.405502	-3.405502
O	5.442404	-5.442306	-3.405502
O	5.616263	-3.230354	-1.193550
O	9.865870	-3.405502	-1.018402
O	5.616263	-1.193550	-3.230354
O	7.654142	-1.193550	-1.193550
O	7.654142	-3.230354	-3.230354
Te	4.423469	-4.423904	0.000000
Te	6.635207	-6.635855	-2.211952
Zn	3.317600	-5.529880	-3.317928
Zn	7.741067	-3.317928	-1.105976
Zn	9.952805	-5.529880	-1.105976
Zn	5.529338	-3.317928	-3.317928
O	12.251470	-1.018402	-1.018402
O	7.828004	1.018402	-3.405502
O	9.865873	-1.018402	-3.405502
O	10.039732	1.193550	-1.193550
O	14.289339	1.018402	-1.018402
O	10.039732	3.230354	-3.230354
O	12.077611	3.230354	-1.193550
O	12.077611	1.193550	-3.230354
Te	8.846938	0.000000	0.000000
Te	11.058677	-2.211952	-2.211952
Zn	7.741069	-1.105976	-3.317928
Zn	12.164536	1.105976	-1.105976
Zn	14.376274	-1.105976	-1.105976
Zn	9.952807	1.105976	-3.317928
O	3.404532	-5.442306	-5.442306
O	-1.018935	-3.405502	-7.829405
O	1.018935	-5.442306	-7.829405
O	1.192794	-3.230354	-5.617453
O	5.442401	-3.405502	-5.442306
O	1.192794	-1.193550	-7.654257
O	3.230673	-1.193550	-5.617453
O	3.230673	-3.230354	-7.654257
Te	0.000000	-4.423904	-4.423904
Te	2.211738	-6.635855	-6.635855
Zn	-1.105869	-5.529880	-7.741831
Zn	3.317597	-3.317928	-5.529880
Zn	5.529336	-5.529880	-5.529880
Zn	1.105869	-3.317928	-7.741831
O	7.828001	-1.018402	-5.442306
O	3.404534	1.018402	-7.829405
O	5.442404	-1.018402	-7.829405
O	5.616263	1.193550	-5.617453
O	9.865870	1.018402	-5.442306
O	5.616263	3.230354	-7.654257
O	7.654142	3.230354	-5.617453
O	7.654142	1.193550	-7.654257
Te	4.423469	0.000000	-4.423904
Te	6.635207	-2.211952	-6.635855
Zn	3.317600	-1.105976	-7.741831
Zn	7.741067	1.105976	-5.529880
Zn	9.952805	-1.105976	-5.529880
Zn	5.529338	1.105976	-7.741831
