96

Bi	0.000000	0.000000	0.000000
K	1.895752	1.895752	1.895752
K	5.072166	1.895752	1.895752
K	1.895752	5.072166	1.895752
K	5.072166	5.072166	1.895752
K	1.895752	1.895752	5.072166
K	5.072166	1.895752	5.072166
K	1.895752	5.072166	5.072166
K	5.072166	5.072166	5.072166
O	3.483959	3.483959	0.000000
O	3.483959	0.000000	3.483959
O	0.000000	3.483959	3.483959
Bi	0.000000	0.000000	6.967918
K	1.895752	1.895752	8.863670
K	5.072166	1.895752	8.863670
K	1.895752	5.072166	8.863670
K	5.072166	5.072166	8.863670
K	1.895752	1.895752	12.040085
K	5.072166	1.895752	12.040085
K	1.895752	5.072166	12.040085
K	5.072166	5.072166	12.040085
O	3.483959	3.483959	6.967918
O	3.483959	0.000000	10.451878
O	0.000000	3.483959	10.451878
Bi	0.000000	6.967918	0.000000
K	1.895752	8.863670	1.895752
K	5.072166	8.863670	1.895752
K	1.895752	12.040085	1.895752
K	5.072166	12.040085	1.895752
K	1.895752	8.863670	5.072166
K	5.072166	8.863670	5.072166
K	1.895752	12.040085	5.072166
K	5.072166	12.040085	5.072166
O	3.483959	10.451878	0.000000
O	3.483959	6.967918	3.483959
O	0.000000	10.451878	3.483959
Bi	0.000000	6.967918	6.967918
K	1.895752	8.863670	8.863670
K	5.072166	8.863670	8.863670
K	1.895752	12.040085	8.863670
K	5.072166	12.040085	8.863670
K	1.895752	8.863670	12.040085
K	5.072166	8.863670	12.040085
K	1.895752	12.040085	12.040085
K	5.072166	12.040085	12.040085
O	3.483959	10.451878	6.967918
O	3.483959	6.967918	10.451878
O	0.000000	10.451878	10.451878
Bi	6.967918	0.000000	0.000000
K	8.863670	1.895752	1.895752
K	12.040085	1.895752	1.895752
K	8.863670	5.072166	1.895752
K	12.040085	5.072166	1.895752
K	8.863670	1.895752	5.072166
K	12.040085	1.895752	5.072166
K	8.863670	5.072166	5.072166
K	12.040085	5.072166	5.072166
O	10.451878	3.483959	0.000000
O	10.451878	0.000000	3.483959
O	6.967918	3.483959	3.483959
Bi	6.967918	0.000000	6.967918
K	8.863670	1.895752	8.863670
K	12.040085	1.895752	8.863670
K	8.863670	5.072166	8.863670
K	12.040085	5.072166	8.863670
K	8.863670	1.895752	12.040085
K	12.040085	1.895752	12.040085
K	8.863670	5.072166	12.040085
K	12.040085	5.072166	12.040085
O	10.451878	3.483959	6.967918
O	10.451878	0.000000	10.451878
O	6.967918	3.483959	10.451878
Bi	6.967918	6.967918	0.000000
K	8.863670	8.863670	1.895752
K	12.040085	8.863670	1.895752
K	8.863670	12.040085	1.895752
K	12.040085	12.040085	1.895752
K	8.863670	8.863670	5.072166
K	12.040085	8.863670	5.072166
K	8.863670	12.040085	5.072166
K	12.040085	12.040085	5.072166
O	10.451878	10.451878	0.000000
O	10.451878	6.967918	3.483959
O	6.967918	10.451878	3.483959
Bi	6.967918	6.967918	6.967918
K	8.863670	8.863670	8.863670
K	12.040085	8.863670	8.863670
K	8.863670	12.040085	8.863670
K	12.040085	12.040085	8.863670
K	8.863670	8.863670	12.040085
K	12.040085	8.863670	12.040085
K	8.863670	12.040085	12.040085
K	12.040085	12.040085	12.040085
O	10.451878	10.451878	6.967918
O	10.451878	6.967918	10.451878
O	6.967918	10.451878	10.451878
