40

Lu	0.000000	0.000000	0.000000
O	2.109931	2.109931	0.000000
O	0.000000	2.109931	2.109931
O	2.109931	0.000000	2.109931
Te	2.109931	2.109931	2.109931
Lu	0.000000	0.000000	4.219871
O	2.109931	2.109931	4.219871
O	0.000000	2.109931	6.329802
O	2.109931	0.000000	6.329802
Te	2.109931	2.109931	6.329802
Lu	0.000000	4.219871	0.000000
O	2.109931	6.329802	0.000000
O	0.000000	6.329802	2.109931
O	2.109931	4.219871	2.109931
Te	2.109931	6.329802	2.109931
Lu	0.000000	4.219871	4.219871
O	2.109931	6.329802	4.219871
O	0.000000	6.329802	6.329802
O	2.109931	4.219871	6.329802
Te	2.109931	6.329802	6.329802
Lu	4.219871	0.000000	0.000000
O	6.329802	2.109931	0.000000
O	4.219871	2.109931	2.109931
O	6.329802	0.000000	2.109931
Te	6.329802	2.109931	2.109931
Lu	4.219871	0.000000	4.219871
O	6.329802	2.109931	4.219871
O	4.219871	2.109931	6.329802
O	6.329802	0.000000	6.329802
Te	6.329802	2.109931	6.329802
Lu	4.219871	4.219871	0.000000
O	6.329802	6.329802	0.000000
O	4.219871	6.329802	2.109931
O	6.329802	4.219871	2.109931
Te	6.329802	6.329802	2.109931
Lu	4.219871	4.219871	4.219871
O	6.329802	6.329802	4.219871
O	4.219871	6.329802	6.329802
O	6.329802	4.219871	6.329802
Te	6.329802	6.329802	6.329802
