112

Au	0.000000	0.000000	0.000000
Au	2.485235	-2.490262	-2.490262
O	3.989078	-1.002118	-1.002118
O	-0.981392	1.002118	-3.978406
O	0.981392	-1.002118	-3.978406
O	1.503843	1.488144	-1.488144
O	5.951862	1.002118	-1.002118
O	1.503843	3.492380	-3.492380
O	3.466627	3.492380	-1.488144
O	3.466627	1.488144	-3.492380
U	-1.242618	-1.245131	-3.735393
U	3.727853	1.245131	-1.245131
U	6.213088	-1.245131	-1.245131
U	1.242618	1.245131	-3.735393
Au	4.970470	4.980524	0.000000
Au	7.455705	2.490262	-2.490262
O	8.959548	3.978406	-1.002118
O	3.989078	5.982642	-3.978406
O	5.951862	3.978406	-3.978406
O	6.474313	6.468668	-1.488144
O	10.922332	5.982642	-1.002118
O	6.474313	8.472904	-3.492380
O	8.437097	8.472904	-1.488144
O	8.437097	6.468668	-3.492380
U	3.727853	3.735393	-3.735393
U	8.698323	6.225655	-1.245131
U	11.183558	3.735393	-1.245131
U	6.213088	6.225655	-3.735393
Au	-4.970470	0.000000	-4.980524
Au	-2.485235	-2.490262	-7.470786
O	-0.981392	-1.002118	-5.982642
O	-5.951862	1.002118	-8.958930
O	-3.989078	-1.002118	-8.958930
O	-3.466627	1.488144	-6.468668
O	0.981392	1.002118	-5.982642
O	-3.466627	3.492380	-8.472904
O	-1.503843	3.492380	-6.468668
O	-1.503843	1.488144	-8.472904
U	-6.213088	-1.245131	-8.715917
U	-1.242618	1.245131	-6.225655
U	1.242618	-1.245131	-6.225655
U	-3.727853	1.245131	-8.715917
Au	0.000000	4.980524	-4.980524
Au	2.485235	2.490262	-7.470786
O	3.989078	3.978406	-5.982642
O	-0.981392	5.982642	-8.958930
O	0.981392	3.978406	-8.958930
O	1.503843	6.468668	-6.468668
O	5.951862	5.982642	-5.982642
O	1.503843	8.472904	-8.472904
O	3.466627	8.472904	-6.468668
O	3.466627	6.468668	-8.472904
U	-1.242618	3.735393	-8.715917
U	3.727853	6.225655	-6.225655
U	6.213088	3.735393	-6.225655
U	1.242618	6.225655	-8.715917
Au	4.970470	-4.980524	0.000000
Au	7.455705	-7.470786	-2.490262
O	8.959548	-5.982642	-1.002118
O	3.989078	-3.978406	-3.978406
O	5.951862	-5.982642	-3.978406
O	6.474313	-3.492380	-1.488144
O	10.922332	-3.978406	-1.002118
O	6.474313	-1.488144	-3.492380
O	8.437097	-1.488144	-1.488144
O	8.437097	-3.492380	-3.492380
U	3.727853	-6.225655	-3.735393
U	8.698323	-3.735393	-1.245131
U	11.183558	-6.225655	-1.245131
U	6.213088	-3.735393	-3.735393
Au	9.940940	0.000000	0.000000
Au	12.426175	-2.490262	-2.490262
O	13.930018	-1.002118	-1.002118
O	8.959548	1.002118	-3.978406
O	10.922332	-1.002118	-3.978406
O	11.444783	1.488144	-1.488144
O	15.892802	1.002118	-1.002118
O	11.444783	3.492380	-3.492380
O	13.407567	3.492380	-1.488144
O	13.407567	1.488144	-3.492380
U	8.698323	-1.245131	-3.735393
U	13.668793	1.245131	-1.245131
U	16.154028	-1.245131	-1.245131
U	11.183558	1.245131	-3.735393
Au	0.000000	-4.980524	-4.980524
Au	2.485235	-7.470786	-7.470786
O	3.989078	-5.982642	-5.982642
O	-0.981392	-3.978406	-8.958930
O	0.981392	-5.982642	-8.958930
O	1.503843	-3.492380	-6.468668
O	5.951862	-3.978406	-5.982642
O	1.503843	-1.488144	-8.472904
O	3.466627	-1.488144	-6.468668
O	3.466627	-3.492380	-8.472904
U	-1.242618	-6.225655	-8.715917
U	3.727853	-3.735393	-6.225655
U	6.213088	-6.225655	-6.225655
U	1.242618	-3.735393	-8.715917
Au	4.970470	0.000000	-4.980524
Au	7.455705	-2.490262	-7.470786
O	8.959548	-1.002118	-5.982642
O	3.989078	1.002118	-8.958930
O	5.951862	-1.002118	-8.958930
O	6.474313	1.488144	-6.468668
O	10.922332	1.002118	-5.982642
O	6.474313	3.492380	-8.472904
O	8.437097	3.492380	-6.468668
O	8.437097	1.488144	-8.472904
U	3.727853	-1.245131	-8.715917
U	8.698323	1.245131	-6.225655
U	11.183558	-1.245131	-6.225655
U	6.213088	1.245131	-8.715917
