40

O	2.181200	0.000000	2.181200
O	0.000000	2.181200	2.181200
O	2.181200	2.181200	0.000000
Pu	2.181200	2.181200	2.181200
Te	0.000000	0.000000	0.000000
O	2.181200	0.000000	6.543610
O	0.000000	2.181200	6.543610
O	2.181200	2.181200	4.362410
Pu	2.181200	2.181200	6.543610
Te	0.000000	0.000000	4.362410
O	2.181200	4.362410	2.181200
O	0.000000	6.543610	2.181200
O	2.181200	6.543610	0.000000
Pu	2.181200	6.543610	2.181200
Te	0.000000	4.362410	0.000000
O	2.181200	4.362410	6.543610
O	0.000000	6.543610	6.543610
O	2.181200	6.543610	4.362410
Pu	2.181200	6.543610	6.543610
Te	0.000000	4.362410	4.362410
O	6.543610	0.000000	2.181200
O	4.362410	2.181200	2.181200
O	6.543610	2.181200	0.000000
Pu	6.543610	2.181200	2.181200
Te	4.362410	0.000000	0.000000
O	6.543610	0.000000	6.543610
O	4.362410	2.181200	6.543610
O	6.543610	2.181200	4.362410
Pu	6.543610	2.181200	6.543610
Te	4.362410	0.000000	4.362410
O	6.543610	4.362410	2.181200
O	4.362410	6.543610	2.181200
O	6.543610	6.543610	0.000000
Pu	6.543610	6.543610	2.181200
Te	4.362410	4.362410	0.000000
O	6.543610	4.362410	6.543610
O	4.362410	6.543610	6.543610
O	6.543610	6.543610	4.362410
Pu	6.543610	6.543610	6.543610
Te	4.362410	4.362410	4.362410
