40

Cu	0.000000	0.000000	0.000000
O	0.000000	1.968269	1.968269
O	1.968269	0.000000	1.968269
O	1.968269	1.968269	0.000000
Sb	1.968269	1.968269	1.968269
Cu	0.000000	0.000000	3.936539
O	0.000000	1.968269	5.904808
O	1.968269	0.000000	5.904808
O	1.968269	1.968269	3.936539
Sb	1.968269	1.968269	5.904808
Cu	0.000000	3.936539	0.000000
O	0.000000	5.904808	1.968269
O	1.968269	3.936539	1.968269
O	1.968269	5.904808	0.000000
Sb	1.968269	5.904808	1.968269
Cu	0.000000	3.936539	3.936539
O	0.000000	5.904808	5.904808
O	1.968269	3.936539	5.904808
O	1.968269	5.904808	3.936539
Sb	1.968269	5.904808	5.904808
Cu	3.936539	0.000000	0.000000
O	3.936539	1.968269	1.968269
O	5.904808	0.000000	1.968269
O	5.904808	1.968269	0.000000
Sb	5.904808	1.968269	1.968269
Cu	3.936539	0.000000	3.936539
O	3.936539	1.968269	5.904808
O	5.904808	0.000000	5.904808
O	5.904808	1.968269	3.936539
Sb	5.904808	1.968269	5.904808
Cu	3.936539	3.936539	0.000000
O	3.936539	5.904808	1.968269
O	5.904808	3.936539	1.968269
O	5.904808	5.904808	0.000000
Sb	5.904808	5.904808	1.968269
Cu	3.936539	3.936539	3.936539
O	3.936539	5.904808	5.904808
O	5.904808	3.936539	5.904808
O	5.904808	5.904808	3.936539
Sb	5.904808	5.904808	5.904808
