40

Nb	0.000000	0.000000	0.000000
Ni	1.835755	1.835755	1.835755
O	0.000000	1.835755	1.835755
O	1.835755	0.000000	1.835755
O	1.835755	1.835755	0.000000
Nb	0.000000	0.000000	3.671510
Ni	1.835755	1.835755	5.507265
O	0.000000	1.835755	5.507265
O	1.835755	0.000000	5.507265
O	1.835755	1.835755	3.671510
Nb	0.000000	3.671510	0.000000
Ni	1.835755	5.507265	1.835755
O	0.000000	5.507265	1.835755
O	1.835755	3.671510	1.835755
O	1.835755	5.507265	0.000000
Nb	0.000000	3.671510	3.671510
Ni	1.835755	5.507265	5.507265
O	0.000000	5.507265	5.507265
O	1.835755	3.671510	5.507265
O	1.835755	5.507265	3.671510
Nb	3.671510	0.000000	0.000000
Ni	5.507265	1.835755	1.835755
O	3.671510	1.835755	1.835755
O	5.507265	0.000000	1.835755
O	5.507265	1.835755	0.000000
Nb	3.671510	0.000000	3.671510
Ni	5.507265	1.835755	5.507265
O	3.671510	1.835755	5.507265
O	5.507265	0.000000	5.507265
O	5.507265	1.835755	3.671510
Nb	3.671510	3.671510	0.000000
Ni	5.507265	5.507265	1.835755
O	3.671510	5.507265	1.835755
O	5.507265	3.671510	1.835755
O	5.507265	5.507265	0.000000
Nb	3.671510	3.671510	3.671510
Ni	5.507265	5.507265	5.507265
O	3.671510	5.507265	5.507265
O	5.507265	3.671510	5.507265
O	5.507265	5.507265	3.671510
