40

Nb	0.000000	0.000000	0.000000
Ni	1.837462	1.837462	1.837462
O	0.000000	1.837462	1.837462
O	1.837462	0.000000	1.837462
O	1.837462	1.837462	0.000000
Nb	0.000000	0.000000	3.674923
Ni	1.837462	1.837462	5.512385
O	0.000000	1.837462	5.512385
O	1.837462	0.000000	5.512385
O	1.837462	1.837462	3.674923
Nb	0.000000	3.674923	0.000000
Ni	1.837462	5.512385	1.837462
O	0.000000	5.512385	1.837462
O	1.837462	3.674923	1.837462
O	1.837462	5.512385	0.000000
Nb	0.000000	3.674923	3.674923
Ni	1.837462	5.512385	5.512385
O	0.000000	5.512385	5.512385
O	1.837462	3.674923	5.512385
O	1.837462	5.512385	3.674923
Nb	3.674923	0.000000	0.000000
Ni	5.512385	1.837462	1.837462
O	3.674923	1.837462	1.837462
O	5.512385	0.000000	1.837462
O	5.512385	1.837462	0.000000
Nb	3.674923	0.000000	3.674923
Ni	5.512385	1.837462	5.512385
O	3.674923	1.837462	5.512385
O	5.512385	0.000000	5.512385
O	5.512385	1.837462	3.674923
Nb	3.674923	3.674923	0.000000
Ni	5.512385	5.512385	1.837462
O	3.674923	5.512385	1.837462
O	5.512385	3.674923	1.837462
O	5.512385	5.512385	0.000000
Nb	3.674923	3.674923	3.674923
Ni	5.512385	5.512385	5.512385
O	3.674923	5.512385	5.512385
O	5.512385	3.674923	5.512385
O	5.512385	5.512385	3.674923
