40

O	0.000000	1.970114	1.970114
O	1.970114	0.000000	1.970114
O	1.970114	1.970114	0.000000
Ru	1.970114	1.970114	1.970114
Sr	-0.015000	0.000000	0.000000
O	0.000000	1.970114	5.910341
O	1.970114	0.000000	5.910341
O	1.970114	1.970114	3.940227
Ru	1.970114	1.970114	5.910341
Sr	-0.015000	0.000000	3.940227
O	0.000000	5.910341	1.970114
O	1.970114	3.940227	1.970114
O	1.970114	5.910341	0.000000
Ru	1.970114	5.910341	1.970114
Sr	-0.015000	3.940227	0.000000
O	0.000000	5.910341	5.910341
O	1.970114	3.940227	5.910341
O	1.970114	5.910341	3.940227
Ru	1.970114	5.910341	5.910341
Sr	-0.015000	3.940227	3.940227
O	3.940227	1.970114	1.970114
O	5.910341	0.000000	1.970114
O	5.910341	1.970114	0.000000
Ru	5.910341	1.970114	1.970114
Sr	3.925227	0.000000	0.000000
O	3.940227	1.970114	5.910341
O	5.910341	0.000000	5.910341
O	5.910341	1.970114	3.940227
Ru	5.910341	1.970114	5.910341
Sr	3.925227	0.000000	3.940227
O	3.940227	5.910341	1.970114
O	5.910341	3.940227	1.970114
O	5.910341	5.910341	0.000000
Ru	5.910341	5.910341	1.970114
Sr	3.925227	3.940227	0.000000
O	3.940227	5.910341	5.910341
O	5.910341	3.940227	5.910341
O	5.910341	5.910341	3.940227
Ru	5.910341	5.910341	5.910341
Sr	3.925227	3.940227	3.940227
