40

O	0.000000	1.973826	1.973826
O	1.973826	0.000000	1.973826
O	1.973826	1.973826	0.000000
Ru	1.973826	1.973826	1.973826
Sr	0.000000	0.000000	0.000000
O	0.000000	1.973826	5.921479
O	1.973826	0.000000	5.921479
O	1.973826	1.973826	3.947653
Ru	1.973826	1.973826	5.921479
Sr	0.000000	0.000000	3.947653
O	0.000000	5.921479	1.973826
O	1.973826	3.947653	1.973826
O	1.973826	5.921479	0.000000
Ru	1.973826	5.921479	1.973826
Sr	0.000000	3.947653	0.000000
O	0.000000	5.921479	5.921479
O	1.973826	3.947653	5.921479
O	1.973826	5.921479	3.947653
Ru	1.973826	5.921479	5.921479
Sr	0.000000	3.947653	3.947653
O	3.947653	1.973826	1.973826
O	5.921479	0.000000	1.973826
O	5.921479	1.973826	0.000000
Ru	5.921479	1.973826	1.973826
Sr	3.947653	0.000000	0.000000
O	3.947653	1.973826	5.921479
O	5.921479	0.000000	5.921479
O	5.921479	1.973826	3.947653
Ru	5.921479	1.973826	5.921479
Sr	3.947653	0.000000	3.947653
O	3.947653	5.921479	1.973826
O	5.921479	3.947653	1.973826
O	5.921479	5.921479	0.000000
Ru	5.921479	5.921479	1.973826
Sr	3.947653	3.947653	0.000000
O	3.947653	5.921479	5.921479
O	5.921479	3.947653	5.921479
O	5.921479	5.921479	3.947653
Ru	5.921479	5.921479	5.921479
Sr	3.947653	3.947653	3.947653
