40

O	2.177310	2.177310	0.000000
O	0.000000	2.177310	2.177310
O	2.177310	0.000000	2.177310
Pa	2.177310	2.177310	2.177310
Ti	0.000000	0.000000	0.000000
O	2.177310	2.177310	4.354621
O	0.000000	2.177310	6.531931
O	2.177310	0.000000	6.531931
Pa	2.177310	2.177310	6.531931
Ti	0.000000	0.000000	4.354621
O	2.177310	6.531931	0.000000
O	0.000000	6.531931	2.177310
O	2.177310	4.354621	2.177310
Pa	2.177310	6.531931	2.177310
Ti	0.000000	4.354621	0.000000
O	2.177310	6.531931	4.354621
O	0.000000	6.531931	6.531931
O	2.177310	4.354621	6.531931
Pa	2.177310	6.531931	6.531931
Ti	0.000000	4.354621	4.354621
O	6.531931	2.177310	0.000000
O	4.354621	2.177310	2.177310
O	6.531931	0.000000	2.177310
Pa	6.531931	2.177310	2.177310
Ti	4.354621	0.000000	0.000000
O	6.531931	2.177310	4.354621
O	4.354621	2.177310	6.531931
O	6.531931	0.000000	6.531931
Pa	6.531931	2.177310	6.531931
Ti	4.354621	0.000000	4.354621
O	6.531931	6.531931	0.000000
O	4.354621	6.531931	2.177310
O	6.531931	4.354621	2.177310
Pa	6.531931	6.531931	2.177310
Ti	4.354621	4.354621	0.000000
O	6.531931	6.531931	4.354621
O	4.354621	6.531931	6.531931
O	6.531931	4.354621	6.531931
Pa	6.531931	6.531931	6.531931
Ti	4.354621	4.354621	4.354621
