40

O	2.090519	2.090519	0.000000
O	0.000000	2.090519	2.090519
O	2.090519	0.000000	2.090519
Pb	0.000000	0.000000	0.000000
Sb	2.090519	2.090519	2.090519
O	2.090519	2.090519	4.181038
O	0.000000	2.090519	6.271557
O	2.090519	0.000000	6.271557
Pb	0.000000	0.000000	4.181038
Sb	2.090519	2.090519	6.271557
O	2.090519	6.271557	0.000000
O	0.000000	6.271557	2.090519
O	2.090519	4.181038	2.090519
Pb	0.000000	4.181038	0.000000
Sb	2.090519	6.271557	2.090519
O	2.090519	6.271557	4.181038
O	0.000000	6.271557	6.271557
O	2.090519	4.181038	6.271557
Pb	0.000000	4.181038	4.181038
Sb	2.090519	6.271557	6.271557
O	6.271557	2.090519	0.000000
O	4.181038	2.090519	2.090519
O	6.271557	0.000000	2.090519
Pb	4.181038	0.000000	0.000000
Sb	6.271557	2.090519	2.090519
O	6.271557	2.090519	4.181038
O	4.181038	2.090519	6.271557
O	6.271557	0.000000	6.271557
Pb	4.181038	0.000000	4.181038
Sb	6.271557	2.090519	6.271557
O	6.271557	6.271557	0.000000
O	4.181038	6.271557	2.090519
O	6.271557	4.181038	2.090519
Pb	4.181038	4.181038	0.000000
Sb	6.271557	6.271557	2.090519
O	6.271557	6.271557	4.181038
O	4.181038	6.271557	6.271557
O	6.271557	4.181038	6.271557
Pb	4.181038	4.181038	4.181038
Sb	6.271557	6.271557	6.271557
