112

Dy	0.000000	0.000000	0.000000
Dy	2.233706	-2.206548	-2.206548
Fe	-1.116853	-1.103274	-3.309821
Fe	3.350559	1.103274	-1.103274
Fe	5.584264	-1.103274	-1.103274
Fe	1.116853	1.103274	-3.309821
O	3.516523	-1.003192	-1.003192
O	-0.950888	1.003192	-3.409903
O	0.950888	-1.003192	-3.409903
O	1.282817	1.203356	-1.203356
O	5.418300	1.003192	-1.003192
O	1.282817	3.209739	-3.209739
O	3.184594	3.209739	-1.203356
O	3.184594	1.203356	-3.209739
Dy	4.467412	4.413095	0.000000
Dy	6.701117	2.206548	-2.206548
Fe	3.350559	3.309821	-3.309821
Fe	7.817970	5.516369	-1.103274
Fe	10.051676	3.309821	-1.103274
Fe	5.584264	5.516369	-3.309821
O	7.983935	3.409903	-1.003192
O	3.516523	5.416287	-3.409903
O	5.418300	3.409903	-3.409903
O	5.750229	5.616451	-1.203356
O	9.885712	5.416287	-1.003192
O	5.750229	7.622834	-3.209739
O	7.652006	7.622834	-1.203356
O	7.652006	5.616451	-3.209739
Dy	-4.467412	0.000000	-4.413095
Dy	-2.233706	-2.206548	-6.619643
Fe	-5.584264	-1.103274	-7.722916
Fe	-1.116853	1.103274	-5.516369
Fe	1.116853	-1.103274	-5.516369
Fe	-3.350559	1.103274	-7.722916
O	-0.950888	-1.003192	-5.416287
O	-5.418300	1.003192	-7.822998
O	-3.516523	-1.003192	-7.822998
O	-3.184594	1.203356	-5.616451
O	0.950888	1.003192	-5.416287
O	-3.184594	3.209739	-7.622834
O	-1.282817	3.209739	-5.616451
O	-1.282817	1.203356	-7.622834
Dy	0.000000	4.413095	-4.413095
Dy	2.233706	2.206548	-6.619643
Fe	-1.116853	3.309821	-7.722916
Fe	3.350559	5.516369	-5.516369
Fe	5.584264	3.309821	-5.516369
Fe	1.116853	5.516369	-7.722916
O	3.516523	3.409903	-5.416287
O	-0.950888	5.416287	-7.822998
O	0.950888	3.409903	-7.822998
O	1.282817	5.616451	-5.616451
O	5.418300	5.416287	-5.416287
O	1.282817	7.622834	-7.622834
O	3.184594	7.622834	-5.616451
O	3.184594	5.616451	-7.622834
Dy	4.467412	-4.413095	0.000000
Dy	6.701117	-6.619643	-2.206548
Fe	3.350559	-5.516369	-3.309821
Fe	7.817970	-3.309821	-1.103274
Fe	10.051676	-5.516369	-1.103274
Fe	5.584264	-3.309821	-3.309821
O	7.983935	-5.416287	-1.003192
O	3.516523	-3.409903	-3.409903
O	5.418300	-5.416287	-3.409903
O	5.750229	-3.209739	-1.203356
O	9.885712	-3.409903	-1.003192
O	5.750229	-1.203356	-3.209739
O	7.652006	-1.203356	-1.203356
O	7.652006	-3.209739	-3.209739
Dy	8.934823	0.000000	0.000000
Dy	11.168529	-2.206548	-2.206548
Fe	7.817970	-1.103274	-3.309821
Fe	12.285382	1.103274	-1.103274
Fe	14.519088	-1.103274	-1.103274
Fe	10.051676	1.103274	-3.309821
O	12.451346	-1.003192	-1.003192
O	7.983935	1.003192	-3.409903
O	9.885711	-1.003192	-3.409903
O	10.217641	1.203356	-1.203356
O	14.353123	1.003192	-1.003192
O	10.217641	3.209739	-3.209739
O	12.119417	3.209739	-1.203356
O	12.119417	1.203356	-3.209739
Dy	0.000000	-4.413095	-4.413095
Dy	2.233706	-6.619643	-6.619643
Fe	-1.116853	-5.516369	-7.722916
Fe	3.350559	-3.309821	-5.516369
Fe	5.584264	-5.516369	-5.516369
Fe	1.116853	-3.309821	-7.722916
O	3.516523	-5.416287	-5.416287
O	-0.950888	-3.409903	-7.822998
O	0.950888	-5.416287	-7.822998
O	1.282817	-3.209739	-5.616451
O	5.418300	-3.409903	-5.416287
O	1.282817	-1.203356	-7.622834
O	3.184594	-1.203356	-5.616451
O	3.184594	-3.209739	-7.622834
Dy	4.467412	0.000000	-4.413095
Dy	6.701117	-2.206548	-6.619643
Fe	3.350559	-1.103274	-7.722916
Fe	7.817970	1.103274	-5.516369
Fe	10.051676	-1.103274	-5.516369
Fe	5.584264	1.103274	-7.722916
O	7.983935	-1.003192	-5.416287
O	3.516523	1.003192	-7.822998
O	5.418300	-1.003192	-7.822998
O	5.750229	1.203356	-5.616451
O	9.885712	1.003192	-5.416287
O	5.750229	3.209739	-7.622834
O	7.652006	3.209739	-5.616451
O	7.652006	1.203356	-7.622834
