40

B	0.000000	0.000000	0.000000
O	2.016090	0.000000	2.016090
O	0.000000	2.016090	2.016090
O	2.016090	2.016090	0.000000
Sc_sv	2.016090	2.016090	2.016090
B	0.000000	0.000000	4.032186
O	2.016090	0.000000	6.048276
O	0.000000	2.016090	6.048276
O	2.016090	2.016090	4.032186
Sc_sv	2.016090	2.016090	6.048276
B	0.000000	4.032186	0.000000
O	2.016090	4.032186	2.016090
O	0.000000	6.048276	2.016090
O	2.016090	6.048276	0.000000
Sc_sv	2.016090	6.048276	2.016090
B	0.000000	4.032186	4.032186
O	2.016090	4.032186	6.048276
O	0.000000	6.048276	6.048276
O	2.016090	6.048276	4.032186
Sc_sv	2.016090	6.048276	6.048276
B	4.032186	0.000000	0.000000
O	6.048276	0.000000	2.016090
O	4.032186	2.016090	2.016090
O	6.048276	2.016090	0.000000
Sc_sv	6.048276	2.016090	2.016090
B	4.032186	0.000000	4.032186
O	6.048276	0.000000	6.048276
O	4.032186	2.016090	6.048276
O	6.048276	2.016090	4.032186
Sc_sv	6.048276	2.016090	6.048276
B	4.032186	4.032186	0.000000
O	6.048276	4.032186	2.016090
O	4.032186	6.048276	2.016090
O	6.048276	6.048276	0.000000
Sc_sv	6.048276	6.048276	2.016090
B	4.032186	4.032186	4.032186
O	6.048276	4.032186	6.048276
O	4.032186	6.048276	6.048276
O	6.048276	6.048276	4.032186
Sc_sv	6.048276	6.048276	6.048276
