112

Au	0.000000	0.000000	0.000000
Au	2.270119	-2.270871	-2.270871
O	3.565415	-0.974564	-0.974564
O	-0.974823	0.974564	-3.567178
O	0.974823	-0.974564	-3.567178
O	1.295296	1.296307	-1.296307
O	5.515061	0.974564	-0.974564
O	1.295296	3.245435	-3.245435
O	3.244942	3.245435	-1.296307
O	3.244942	1.296307	-3.245435
Sc	-1.135059	-1.135436	-3.406307
Sc	3.405178	1.135436	-1.135436
Sc	5.675297	-1.135436	-1.135436
Sc	1.135059	1.135436	-3.406307
Au	4.540238	4.541742	0.000000
Au	6.810357	2.270871	-2.270871
O	8.105652	3.567178	-0.974564
O	3.565415	5.516306	-3.567178
O	5.515061	3.567178	-3.567178
O	5.835533	5.838049	-1.296307
O	10.055299	5.516306	-0.974564
O	5.835533	7.787177	-3.245435
O	7.785180	7.787177	-1.296307
O	7.785180	5.838049	-3.245435
Sc	3.405178	3.406307	-3.406307
Sc	7.945416	5.677178	-1.135436
Sc	10.215535	3.406307	-1.135436
Sc	5.675297	5.677178	-3.406307
Au	-4.540238	0.000000	-4.541742
Au	-2.270119	-2.270871	-6.812613
O	-0.974823	-0.974564	-5.516306
O	-5.515061	0.974564	-8.108920
O	-3.565415	-0.974564	-8.108920
O	-3.244942	1.296307	-5.838049
O	0.974823	0.974564	-5.516306
O	-3.244942	3.245435	-7.787177
O	-1.295296	3.245435	-5.838049
O	-1.295296	1.296307	-7.787177
Sc	-5.675297	-1.135436	-7.948049
Sc	-1.135059	1.135436	-5.677178
Sc	1.135059	-1.135436	-5.677178
Sc	-3.405178	1.135436	-7.948049
Au	0.000000	4.541742	-4.541742
Au	2.270119	2.270871	-6.812613
O	3.565415	3.567178	-5.516306
O	-0.974823	5.516306	-8.108920
O	0.974823	3.567178	-8.108920
O	1.295296	5.838049	-5.838049
O	5.515061	5.516306	-5.516306
O	1.295296	7.787177	-7.787177
O	3.244942	7.787177	-5.838049
O	3.244942	5.838049	-7.787177
Sc	-1.135059	3.406307	-7.948049
Sc	3.405178	5.677178	-5.677178
Sc	5.675297	3.406307	-5.677178
Sc	1.135059	5.677178	-7.948049
Au	4.540238	-4.541742	0.000000
Au	6.810357	-6.812613	-2.270871
O	8.105652	-5.516306	-0.974564
O	3.565415	-3.567178	-3.567178
O	5.515061	-5.516306	-3.567178
O	5.835533	-3.245435	-1.296307
O	10.055299	-3.567178	-0.974564
O	5.835533	-1.296307	-3.245435
O	7.785180	-1.296307	-1.296307
O	7.785180	-3.245435	-3.245435
Sc	3.405178	-5.677178	-3.406307
Sc	7.945416	-3.406307	-1.135436
Sc	10.215535	-5.677178	-1.135436
Sc	5.675297	-3.406307	-3.406307
Au	9.080475	0.000000	0.000000
Au	11.350594	-2.270871	-2.270871
O	12.645890	-0.974564	-0.974564
O	8.105652	0.974564	-3.567178
O	10.055299	-0.974564	-3.567178
O	10.375771	1.296307	-1.296307
O	14.595536	0.974564	-0.974564
O	10.375771	3.245435	-3.245435
O	12.325417	3.245435	-1.296307
O	12.325417	1.296307	-3.245435
Sc	7.945416	-1.135436	-3.406307
Sc	12.485654	1.135436	-1.135436
Sc	14.755773	-1.135436	-1.135436
Sc	10.215535	1.135436	-3.406307
Au	0.000000	-4.541742	-4.541742
Au	2.270119	-6.812613	-6.812613
O	3.565415	-5.516306	-5.516306
O	-0.974823	-3.567178	-8.108920
O	0.974823	-5.516306	-8.108920
O	1.295296	-3.245435	-5.838049
O	5.515061	-3.567178	-5.516306
O	1.295296	-1.296307	-7.787177
O	3.244942	-1.296307	-5.838049
O	3.244942	-3.245435	-7.787177
Sc	-1.135059	-5.677178	-7.948049
Sc	3.405178	-3.406307	-5.677178
Sc	5.675297	-5.677178	-5.677178
Sc	1.135059	-3.406307	-7.948049
Au	4.540238	0.000000	-4.541742
Au	6.810357	-2.270871	-6.812613
O	8.105652	-0.974564	-5.516306
O	3.565415	0.974564	-8.108920
O	5.515061	-0.974564	-8.108920
O	5.835533	1.296307	-5.838049
O	10.055299	0.974564	-5.516306
O	5.835533	3.245435	-7.787177
O	7.785180	3.245435	-5.838049
O	7.785180	1.296307	-7.787177
Sc	3.405178	-1.135436	-7.948049
Sc	7.945416	1.135436	-5.677178
Sc	10.215535	-1.135436	-5.677178
Sc	5.675297	1.135436	-7.948049
