40

O	0.000000	1.991068	1.991068
O	1.991068	0.000000	1.991068
O	1.991068	1.991068	0.000000
Ta	0.000000	0.000000	0.000000
W	1.991068	1.991068	1.991068
O	0.000000	1.991068	5.973205
O	1.991068	0.000000	5.973205
O	1.991068	1.991068	3.982137
Ta	0.000000	0.000000	3.982137
W	1.991068	1.991068	5.973205
O	0.000000	5.973205	1.991068
O	1.991068	3.982137	1.991068
O	1.991068	5.973205	0.000000
Ta	0.000000	3.982137	0.000000
W	1.991068	5.973205	1.991068
O	0.000000	5.973205	5.973205
O	1.991068	3.982137	5.973205
O	1.991068	5.973205	3.982137
Ta	0.000000	3.982137	3.982137
W	1.991068	5.973205	5.973205
O	3.982137	1.991068	1.991068
O	5.973205	0.000000	1.991068
O	5.973205	1.991068	0.000000
Ta	3.982137	0.000000	0.000000
W	5.973205	1.991068	1.991068
O	3.982137	1.991068	5.973205
O	5.973205	0.000000	5.973205
O	5.973205	1.991068	3.982137
Ta	3.982137	0.000000	3.982137
W	5.973205	1.991068	5.973205
O	3.982137	5.973205	1.991068
O	5.973205	3.982137	1.991068
O	5.973205	5.973205	0.000000
Ta	3.982137	3.982137	0.000000
W	5.973205	5.973205	1.991068
O	3.982137	5.973205	5.973205
O	5.973205	3.982137	5.973205
O	5.973205	5.973205	3.982137
Ta	3.982137	3.982137	3.982137
W	5.973205	5.973205	5.973205
