40

O	1.943957	1.943957	0.000000
O	1.943957	0.000000	1.943957
O	0.000000	1.943957	1.943957
Rh	1.943957	1.943957	1.943957
Ru	0.000000	0.000000	0.000000
O	1.943957	1.943957	3.887913
O	1.943957	0.000000	5.831870
O	0.000000	1.943957	5.831870
Rh	1.943957	1.943957	5.831870
Ru	0.000000	0.000000	3.887913
O	1.943957	5.831870	0.000000
O	1.943957	3.887913	1.943957
O	0.000000	5.831870	1.943957
Rh	1.943957	5.831870	1.943957
Ru	0.000000	3.887913	0.000000
O	1.943957	5.831870	3.887913
O	1.943957	3.887913	5.831870
O	0.000000	5.831870	5.831870
Rh	1.943957	5.831870	5.831870
Ru	0.000000	3.887913	3.887913
O	5.831870	1.943957	0.000000
O	5.831870	0.000000	1.943957
O	3.887913	1.943957	1.943957
Rh	5.831870	1.943957	1.943957
Ru	3.887913	0.000000	0.000000
O	5.831870	1.943957	3.887913
O	5.831870	0.000000	5.831870
O	3.887913	1.943957	5.831870
Rh	5.831870	1.943957	5.831870
Ru	3.887913	0.000000	3.887913
O	5.831870	5.831870	0.000000
O	5.831870	3.887913	1.943957
O	3.887913	5.831870	1.943957
Rh	5.831870	5.831870	1.943957
Ru	3.887913	3.887913	0.000000
O	5.831870	5.831870	3.887913
O	5.831870	3.887913	5.831870
O	3.887913	5.831870	5.831870
Rh	5.831870	5.831870	5.831870
Ru	3.887913	3.887913	3.887913
