40

Al	1.828933	1.828933	1.828933
Ni	0.000000	0.000000	0.000000
O	0.000000	1.828933	1.828933
O	1.828933	0.000000	1.828933
O	1.828933	1.828933	0.000000
Al	1.828933	1.828933	5.486799
Ni	0.000000	0.000000	3.657866
O	0.000000	1.828933	5.486799
O	1.828933	0.000000	5.486799
O	1.828933	1.828933	3.657866
Al	1.828933	5.486799	1.828933
Ni	0.000000	3.657866	0.000000
O	0.000000	5.486799	1.828933
O	1.828933	3.657866	1.828933
O	1.828933	5.486799	0.000000
Al	1.828933	5.486799	5.486799
Ni	0.000000	3.657866	3.657866
O	0.000000	5.486799	5.486799
O	1.828933	3.657866	5.486799
O	1.828933	5.486799	3.657866
Al	5.486799	1.828933	1.828933
Ni	3.657866	0.000000	0.000000
O	3.657866	1.828933	1.828933
O	5.486799	0.000000	1.828933
O	5.486799	1.828933	0.000000
Al	5.486799	1.828933	5.486799
Ni	3.657866	0.000000	3.657866
O	3.657866	1.828933	5.486799
O	5.486799	0.000000	5.486799
O	5.486799	1.828933	3.657866
Al	5.486799	5.486799	1.828933
Ni	3.657866	3.657866	0.000000
O	3.657866	5.486799	1.828933
O	5.486799	3.657866	1.828933
O	5.486799	5.486799	0.000000
Al	5.486799	5.486799	5.486799
Ni	3.657866	3.657866	3.657866
O	3.657866	5.486799	5.486799
O	5.486799	3.657866	5.486799
O	5.486799	5.486799	3.657866
