40

Al	1.818270	1.818270	1.818270
Ni	0.000000	0.000000	0.000000
O	1.818270	1.818270	0.000000
O	0.000000	1.818270	1.818270
O	1.818270	0.000000	1.818270
Al	1.818270	1.818270	5.454811
Ni	0.000000	0.000000	3.636541
O	1.818270	1.818270	3.636541
O	0.000000	1.818270	5.454811
O	1.818270	0.000000	5.454811
Al	1.818270	5.454811	1.818270
Ni	0.000000	3.636541	0.000000
O	1.818270	5.454811	0.000000
O	0.000000	5.454811	1.818270
O	1.818270	3.636541	1.818270
Al	1.818270	5.454811	5.454811
Ni	0.000000	3.636541	3.636541
O	1.818270	5.454811	3.636541
O	0.000000	5.454811	5.454811
O	1.818270	3.636541	5.454811
Al	5.454811	1.818270	1.818270
Ni	3.636541	0.000000	0.000000
O	5.454811	1.818270	0.000000
O	3.636541	1.818270	1.818270
O	5.454811	0.000000	1.818270
Al	5.454811	1.818270	5.454811
Ni	3.636541	0.000000	3.636541
O	5.454811	1.818270	3.636541
O	3.636541	1.818270	5.454811
O	5.454811	0.000000	5.454811
Al	5.454811	5.454811	1.818270
Ni	3.636541	3.636541	0.000000
O	5.454811	5.454811	0.000000
O	3.636541	5.454811	1.818270
O	5.454811	3.636541	1.818270
Al	5.454811	5.454811	5.454811
Ni	3.636541	3.636541	3.636541
O	5.454811	5.454811	3.636541
O	3.636541	5.454811	5.454811
O	5.454811	3.636541	5.454811
