40

B	0.000000	0.000000	0.000000
Ir	1.934855	1.934855	1.934855
O	0.000000	1.934855	1.934855
O	1.934855	0.000000	1.934855
O	1.934855	1.934855	0.000000
B	0.000000	0.000000	3.869710
Ir	1.934855	1.934855	5.804565
O	0.000000	1.934855	5.804565
O	1.934855	0.000000	5.804565
O	1.934855	1.934855	3.869710
B	0.000000	3.869710	0.000000
Ir	1.934855	5.804565	1.934855
O	0.000000	5.804565	1.934855
O	1.934855	3.869710	1.934855
O	1.934855	5.804565	0.000000
B	0.000000	3.869710	3.869710
Ir	1.934855	5.804565	5.804565
O	0.000000	5.804565	5.804565
O	1.934855	3.869710	5.804565
O	1.934855	5.804565	3.869710
B	3.869710	0.000000	0.000000
Ir	5.804565	1.934855	1.934855
O	3.869710	1.934855	1.934855
O	5.804565	0.000000	1.934855
O	5.804565	1.934855	0.000000
B	3.869710	0.000000	3.869710
Ir	5.804565	1.934855	5.804565
O	3.869710	1.934855	5.804565
O	5.804565	0.000000	5.804565
O	5.804565	1.934855	3.869710
B	3.869710	3.869710	0.000000
Ir	5.804565	5.804565	1.934855
O	3.869710	5.804565	1.934855
O	5.804565	3.869710	1.934855
O	5.804565	5.804565	0.000000
B	3.869710	3.869710	3.869710
Ir	5.804565	5.804565	5.804565
O	3.869710	5.804565	5.804565
O	5.804565	3.869710	5.804565
O	5.804565	5.804565	3.869710
