40

Li	1.948005	1.948005	1.948005
O	0.000000	1.948005	1.948005
O	1.948005	0.000000	1.948005
O	1.948005	1.948005	0.000000
Pb	0.000000	0.000000	0.000000
Li	1.948005	1.948005	5.844016
O	0.000000	1.948005	5.844016
O	1.948005	0.000000	5.844016
O	1.948005	1.948005	3.896011
Pb	0.000000	0.000000	3.896011
Li	1.948005	5.844016	1.948005
O	0.000000	5.844016	1.948005
O	1.948005	3.896011	1.948005
O	1.948005	5.844016	0.000000
Pb	0.000000	3.896011	0.000000
Li	1.948005	5.844016	5.844016
O	0.000000	5.844016	5.844016
O	1.948005	3.896011	5.844016
O	1.948005	5.844016	3.896011
Pb	0.000000	3.896011	3.896011
Li	5.844016	1.948005	1.948005
O	3.896011	1.948005	1.948005
O	5.844016	0.000000	1.948005
O	5.844016	1.948005	0.000000
Pb	3.896011	0.000000	0.000000
Li	5.844016	1.948005	5.844016
O	3.896011	1.948005	5.844016
O	5.844016	0.000000	5.844016
O	5.844016	1.948005	3.896011
Pb	3.896011	0.000000	3.896011
Li	5.844016	5.844016	1.948005
O	3.896011	5.844016	1.948005
O	5.844016	3.896011	1.948005
O	5.844016	5.844016	0.000000
Pb	3.896011	3.896011	0.000000
Li	5.844016	5.844016	5.844016
O	3.896011	5.844016	5.844016
O	5.844016	3.896011	5.844016
O	5.844016	5.844016	3.896011
Pb	3.896011	3.896011	3.896011
