112

Nb	0.000000	0.000000	0.000000
Nb	2.477863	-2.478046	-2.478046
O	3.579969	-1.375595	-1.375595
O	-1.375757	1.375595	-3.580496
O	1.375757	-1.375595	-3.580496
O	1.102106	1.102451	-1.102451
O	6.331484	1.375595	-1.375595
O	1.102106	3.853641	-3.853641
O	3.853621	3.853641	-1.102451
O	3.853621	1.102451	-3.853641
Sr	-1.238932	-1.239023	-3.717068
Sr	3.716795	1.239023	-1.239023
Sr	6.194658	-1.239023	-1.239023
Sr	1.238932	1.239023	-3.717068
Nb	4.955727	4.956091	0.000000
Nb	7.433590	2.478046	-2.478046
O	8.535696	3.580496	-1.375595
O	3.579969	6.331686	-3.580496
O	6.331484	3.580496	-3.580496
O	6.057833	6.058542	-1.102451
O	11.287211	6.331686	-1.375595
O	6.057833	8.809732	-3.853641
O	8.809347	8.809732	-1.102451
O	8.809347	6.058542	-3.853641
Sr	3.716795	3.717068	-3.717068
Sr	8.672522	6.195114	-1.239023
Sr	11.150385	3.717068	-1.239023
Sr	6.194658	6.195114	-3.717068
Nb	-4.955727	0.000000	-4.956091
Nb	-2.477863	-2.478046	-7.434137
O	-1.375757	-1.375595	-6.331686
O	-6.331484	1.375595	-8.536587
O	-3.579969	-1.375595	-8.536587
O	-3.853621	1.102451	-6.058542
O	1.375757	1.375595	-6.331686
O	-3.853621	3.853641	-8.809732
O	-1.102106	3.853641	-6.058542
O	-1.102106	1.102451	-8.809732
Sr	-6.194658	-1.239023	-8.673160
Sr	-1.238932	1.239023	-6.195114
Sr	1.238932	-1.239023	-6.195114
Sr	-3.716795	1.239023	-8.673160
Nb	0.000000	4.956091	-4.956091
Nb	2.477863	2.478046	-7.434137
O	3.579969	3.580496	-6.331686
O	-1.375757	6.331686	-8.536587
O	1.375757	3.580496	-8.536587
O	1.102106	6.058542	-6.058542
O	6.331484	6.331686	-6.331686
O	1.102106	8.809732	-8.809732
O	3.853621	8.809732	-6.058542
O	3.853621	6.058542	-8.809732
Sr	-1.238932	3.717068	-8.673160
Sr	3.716795	6.195114	-6.195114
Sr	6.194658	3.717068	-6.195114
Sr	1.238932	6.195114	-8.673160
Nb	4.955727	-4.956091	0.000000
Nb	7.433590	-7.434137	-2.478046
O	8.535696	-6.331686	-1.375595
O	3.579969	-3.580496	-3.580496
O	6.331484	-6.331686	-3.580496
O	6.057833	-3.853641	-1.102451
O	11.287211	-3.580496	-1.375595
O	6.057833	-1.102451	-3.853641
O	8.809347	-1.102451	-1.102451
O	8.809347	-3.853641	-3.853641
Sr	3.716795	-6.195114	-3.717068
Sr	8.672522	-3.717068	-1.239023
Sr	11.150385	-6.195114	-1.239023
Sr	6.194658	-3.717068	-3.717068
Nb	9.911453	0.000000	0.000000
Nb	12.389317	-2.478046	-2.478046
O	13.491423	-1.375595	-1.375595
O	8.535696	1.375595	-3.580496
O	11.287211	-1.375595	-3.580496
O	11.013559	1.102451	-1.102451
O	16.242937	1.375595	-1.375595
O	11.013559	3.853641	-3.853641
O	13.765074	3.853641	-1.102451
O	13.765074	1.102451	-3.853641
Sr	8.672522	-1.239023	-3.717068
Sr	13.628248	1.239023	-1.239023
Sr	16.106112	-1.239023	-1.239023
Sr	11.150385	1.239023	-3.717068
Nb	0.000000	-4.956091	-4.956091
Nb	2.477863	-7.434137	-7.434137
O	3.579969	-6.331686	-6.331686
O	-1.375757	-3.580496	-8.536587
O	1.375757	-6.331686	-8.536587
O	1.102106	-3.853641	-6.058542
O	6.331484	-3.580496	-6.331686
O	1.102106	-1.102451	-8.809732
O	3.853621	-1.102451	-6.058542
O	3.853621	-3.853641	-8.809732
Sr	-1.238932	-6.195114	-8.673160
Sr	3.716795	-3.717068	-6.195114
Sr	6.194658	-6.195114	-6.195114
Sr	1.238932	-3.717068	-8.673160
Nb	4.955727	0.000000	-4.956091
Nb	7.433590	-2.478046	-7.434137
O	8.535696	-1.375595	-6.331686
O	3.579969	1.375595	-8.536587
O	6.331484	-1.375595	-8.536587
O	6.057833	1.102451	-6.058542
O	11.287211	1.375595	-6.331686
O	6.057833	3.853641	-8.809732
O	8.809347	3.853641	-6.058542
O	8.809347	1.102451	-8.809732
Sr	3.716795	-1.239023	-8.673160
Sr	8.672522	1.239023	-6.195114
Sr	11.150385	-1.239023	-6.195114
Sr	6.194658	1.239023	-8.673160
