112

Bi	0.000000	0.000000	0.000000
Bi	2.614491	-2.614739	-2.614739
K	-1.307245	-1.307369	-3.922108
K	3.921736	1.307369	-1.307369
K	6.536227	-1.307369	-1.307369
K	1.307245	1.307369	-3.922108
O	3.788304	-1.440321	-1.440321
O	-1.440678	1.440321	-3.789156
O	1.440678	-1.440321	-3.789156
O	1.173813	1.174417	-1.174417
O	6.669659	1.440321	-1.440321
O	1.173813	4.055060	-4.055060
O	4.055169	4.055060	-1.174417
O	4.055169	1.174417	-4.055060
Bi	5.228981	5.229477	0.000000
Bi	7.843472	2.614739	-2.614739
K	3.921736	3.922108	-3.922108
K	9.150718	6.536846	-1.307369
K	11.765208	3.922108	-1.307369
K	6.536227	6.536846	-3.922108
O	9.017285	3.789156	-1.440321
O	3.788304	6.669798	-3.789156
O	6.669659	3.789156	-3.789156
O	6.402794	6.403894	-1.174417
O	11.898641	6.669798	-1.440321
O	6.402794	9.284537	-4.055060
O	9.284150	9.284537	-1.174417
O	9.284150	6.403894	-4.055060
Bi	-5.228981	0.000000	-5.229477
Bi	-2.614491	-2.614739	-7.844216
K	-6.536227	-1.307369	-9.151585
K	-1.307245	1.307369	-6.536846
K	1.307245	-1.307369	-6.536846
K	-3.921736	1.307369	-9.151585
O	-1.440678	-1.440321	-6.669798
O	-6.669659	1.440321	-9.018633
O	-3.788304	-1.440321	-9.018633
O	-4.055169	1.174417	-6.403894
O	1.440678	1.440321	-6.669798
O	-4.055169	4.055060	-9.284537
O	-1.173813	4.055060	-6.403894
O	-1.173813	1.174417	-9.284537
Bi	0.000000	5.229477	-5.229477
Bi	2.614491	2.614739	-7.844216
K	-1.307245	3.922108	-9.151585
K	3.921736	6.536846	-6.536846
K	6.536227	3.922108	-6.536846
K	1.307245	6.536846	-9.151585
O	3.788304	3.789156	-6.669798
O	-1.440678	6.669798	-9.018633
O	1.440678	3.789156	-9.018633
O	1.173813	6.403894	-6.403894
O	6.669659	6.669798	-6.669798
O	1.173813	9.284537	-9.284537
O	4.055169	9.284537	-6.403894
O	4.055169	6.403894	-9.284537
Bi	5.228981	-5.229477	0.000000
Bi	7.843472	-7.844216	-2.614739
K	3.921736	-6.536846	-3.922108
K	9.150718	-3.922108	-1.307369
K	11.765208	-6.536846	-1.307369
K	6.536227	-3.922108	-3.922108
O	9.017285	-6.669798	-1.440321
O	3.788304	-3.789156	-3.789156
O	6.669659	-6.669798	-3.789156
O	6.402794	-4.055060	-1.174417
O	11.898641	-3.789156	-1.440321
O	6.402794	-1.174417	-4.055060
O	9.284150	-1.174417	-1.174417
O	9.284150	-4.055060	-4.055060
Bi	10.457963	0.000000	0.000000
Bi	13.072454	-2.614739	-2.614739
K	9.150718	-1.307369	-3.922108
K	14.379699	1.307369	-1.307369
K	16.994190	-1.307369	-1.307369
K	11.765208	1.307369	-3.922108
O	14.246267	-1.440321	-1.440321
O	9.017285	1.440321	-3.789156
O	11.898641	-1.440321	-3.789156
O	11.631776	1.174417	-1.174417
O	17.127622	1.440321	-1.440321
O	11.631776	4.055060	-4.055060
O	14.513132	4.055060	-1.174417
O	14.513132	1.174417	-4.055060
Bi	0.000000	-5.229477	-5.229477
Bi	2.614491	-7.844216	-7.844216
K	-1.307245	-6.536846	-9.151585
K	3.921736	-3.922108	-6.536846
K	6.536227	-6.536846	-6.536846
K	1.307245	-3.922108	-9.151585
O	3.788304	-6.669798	-6.669798
O	-1.440678	-3.789156	-9.018633
O	1.440678	-6.669798	-9.018633
O	1.173813	-4.055060	-6.403894
O	6.669659	-3.789156	-6.669798
O	1.173813	-1.174417	-9.284537
O	4.055169	-1.174417	-6.403894
O	4.055169	-4.055060	-9.284537
Bi	5.228981	0.000000	-5.229477
Bi	7.843472	-2.614739	-7.844216
K	3.921736	-1.307369	-9.151585
K	9.150718	1.307369	-6.536846
K	11.765208	-1.307369	-6.536846
K	6.536227	1.307369	-9.151585
O	9.017285	-1.440321	-6.669798
O	3.788304	1.440321	-9.018633
O	6.669659	-1.440321	-9.018633
O	6.402794	1.174417	-6.403894
O	11.898641	1.440321	-6.669798
O	6.402794	4.055060	-9.284537
O	9.284150	4.055060	-6.403894
O	9.284150	1.174417	-9.284537
