40

C	1.822695	1.822695	1.822695
F	0.000000	1.822695	1.822695
F	1.822695	0.000000	1.822695
F	1.822695	1.822695	0.000000
O	0.000000	0.000000	0.000000
C	1.822695	1.822695	5.468085
F	0.000000	1.822695	5.468085
F	1.822695	0.000000	5.468085
F	1.822695	1.822695	3.645390
O	0.000000	0.000000	3.645390
C	1.822695	5.468085	1.822695
F	0.000000	5.468085	1.822695
F	1.822695	3.645390	1.822695
F	1.822695	5.468085	0.000000
O	0.000000	3.645390	0.000000
C	1.822695	5.468085	5.468085
F	0.000000	5.468085	5.468085
F	1.822695	3.645390	5.468085
F	1.822695	5.468085	3.645390
O	0.000000	3.645390	3.645390
C	5.468085	1.822695	1.822695
F	3.645390	1.822695	1.822695
F	5.468085	0.000000	1.822695
F	5.468085	1.822695	0.000000
O	3.645390	0.000000	0.000000
C	5.468085	1.822695	5.468085
F	3.645390	1.822695	5.468085
F	5.468085	0.000000	5.468085
F	5.468085	1.822695	3.645390
O	3.645390	0.000000	3.645390
C	5.468085	5.468085	1.822695
F	3.645390	5.468085	1.822695
F	5.468085	3.645390	1.822695
F	5.468085	5.468085	0.000000
O	3.645390	3.645390	0.000000
C	5.468085	5.468085	5.468085
F	3.645390	5.468085	5.468085
F	5.468085	3.645390	5.468085
F	5.468085	5.468085	3.645390
O	3.645390	3.645390	3.645390
