40

C	1.817192	1.817192	1.817192
F	0.000000	1.817192	1.817192
F	1.817192	0.000000	1.817192
F	1.817192	1.817192	0.000000
O	0.000000	0.000000	0.000000
C	1.817192	1.817192	5.451577
F	0.000000	1.817192	5.451577
F	1.817192	0.000000	5.451577
F	1.817192	1.817192	3.634384
O	0.000000	0.000000	3.634384
C	1.817192	5.451577	1.817192
F	0.000000	5.451577	1.817192
F	1.817192	3.634384	1.817192
F	1.817192	5.451577	0.000000
O	0.000000	3.634384	0.000000
C	1.817192	5.451577	5.451577
F	0.000000	5.451577	5.451577
F	1.817192	3.634384	5.451577
F	1.817192	5.451577	3.634384
O	0.000000	3.634384	3.634384
C	5.451577	1.817192	1.817192
F	3.634384	1.817192	1.817192
F	5.451577	0.000000	1.817192
F	5.451577	1.817192	0.000000
O	3.634384	0.000000	0.000000
C	5.451577	1.817192	5.451577
F	3.634384	1.817192	5.451577
F	5.451577	0.000000	5.451577
F	5.451577	1.817192	3.634384
O	3.634384	0.000000	3.634384
C	5.451577	5.451577	1.817192
F	3.634384	5.451577	1.817192
F	5.451577	3.634384	1.817192
F	5.451577	5.451577	0.000000
O	3.634384	3.634384	0.000000
C	5.451577	5.451577	5.451577
F	3.634384	5.451577	5.451577
F	5.451577	3.634384	5.451577
F	5.451577	5.451577	3.634384
O	3.634384	3.634384	3.634384
