40

Cs	0.000000	0.000000	0.000000
O	2.223302	2.223302	0.000000
O	2.223302	0.000000	2.223302
O	0.000000	2.223302	2.223302
Pu	2.223302	2.223302	2.223302
Cs	0.000000	0.000000	4.446609
O	2.223302	2.223302	4.446609
O	2.223302	0.000000	6.669911
O	0.000000	2.223302	6.669911
Pu	2.223302	2.223302	6.669911
Cs	0.000000	4.446609	0.000000
O	2.223302	6.669911	0.000000
O	2.223302	4.446609	2.223302
O	0.000000	6.669911	2.223302
Pu	2.223302	6.669911	2.223302
Cs	0.000000	4.446609	4.446609
O	2.223302	6.669911	4.446609
O	2.223302	4.446609	6.669911
O	0.000000	6.669911	6.669911
Pu	2.223302	6.669911	6.669911
Cs	4.446609	0.000000	0.000000
O	6.669911	2.223302	0.000000
O	6.669911	0.000000	2.223302
O	4.446609	2.223302	2.223302
Pu	6.669911	2.223302	2.223302
Cs	4.446609	0.000000	4.446609
O	6.669911	2.223302	4.446609
O	6.669911	0.000000	6.669911
O	4.446609	2.223302	6.669911
Pu	6.669911	2.223302	6.669911
Cs	4.446609	4.446609	0.000000
O	6.669911	6.669911	0.000000
O	6.669911	4.446609	2.223302
O	4.446609	6.669911	2.223302
Pu	6.669911	6.669911	2.223302
Cs	4.446609	4.446609	4.446609
O	6.669911	6.669911	4.446609
O	6.669911	4.446609	6.669911
O	4.446609	6.669911	6.669911
Pu	6.669911	6.669911	6.669911
