40

Be	0.000000	0.000000	0.000000
Cd	2.002890	2.002890	2.002890
O	2.002890	2.002890	0.000000
O	0.000000	2.002890	2.002890
O	2.002890	0.000000	2.002890
Be	0.000000	0.000000	4.005781
Cd	2.002890	2.002890	6.008671
O	2.002890	2.002890	4.005781
O	0.000000	2.002890	6.008671
O	2.002890	0.000000	6.008671
Be	0.000000	4.005781	0.000000
Cd	2.002890	6.008671	2.002890
O	2.002890	6.008671	0.000000
O	0.000000	6.008671	2.002890
O	2.002890	4.005781	2.002890
Be	0.000000	4.005781	4.005781
Cd	2.002890	6.008671	6.008671
O	2.002890	6.008671	4.005781
O	0.000000	6.008671	6.008671
O	2.002890	4.005781	6.008671
Be	4.005781	0.000000	0.000000
Cd	6.008671	2.002890	2.002890
O	6.008671	2.002890	0.000000
O	4.005781	2.002890	2.002890
O	6.008671	0.000000	2.002890
Be	4.005781	0.000000	4.005781
Cd	6.008671	2.002890	6.008671
O	6.008671	2.002890	4.005781
O	4.005781	2.002890	6.008671
O	6.008671	0.000000	6.008671
Be	4.005781	4.005781	0.000000
Cd	6.008671	6.008671	2.002890
O	6.008671	6.008671	0.000000
O	4.005781	6.008671	2.002890
O	6.008671	4.005781	2.002890
Be	4.005781	4.005781	4.005781
Cd	6.008671	6.008671	6.008671
O	6.008671	6.008671	4.005781
O	4.005781	6.008671	6.008671
O	6.008671	4.005781	6.008671
