40

Be	0.000000	0.000000	0.000000
O	0.000000	1.992122	1.992122
O	1.992122	0.000000	1.992122
O	1.992122	1.992122	0.000000
Ta	1.992122	1.992122	1.992122
Be	0.000000	0.000000	3.984245
O	0.000000	1.992122	5.976367
O	1.992122	0.000000	5.976367
O	1.992122	1.992122	3.984245
Ta	1.992122	1.992122	5.976367
Be	0.000000	3.984245	0.000000
O	0.000000	5.976367	1.992122
O	1.992122	3.984245	1.992122
O	1.992122	5.976367	0.000000
Ta	1.992122	5.976367	1.992122
Be	0.000000	3.984245	3.984245
O	0.000000	5.976367	5.976367
O	1.992122	3.984245	5.976367
O	1.992122	5.976367	3.984245
Ta	1.992122	5.976367	5.976367
Be	3.984245	0.000000	0.000000
O	3.984245	1.992122	1.992122
O	5.976367	0.000000	1.992122
O	5.976367	1.992122	0.000000
Ta	5.976367	1.992122	1.992122
Be	3.984245	0.000000	3.984245
O	3.984245	1.992122	5.976367
O	5.976367	0.000000	5.976367
O	5.976367	1.992122	3.984245
Ta	5.976367	1.992122	5.976367
Be	3.984245	3.984245	0.000000
O	3.984245	5.976367	1.992122
O	5.976367	3.984245	1.992122
O	5.976367	5.976367	0.000000
Ta	5.976367	5.976367	1.992122
Be	3.984245	3.984245	3.984245
O	3.984245	5.976367	5.976367
O	5.976367	3.984245	5.976367
O	5.976367	5.976367	3.984245
Ta	5.976367	5.976367	5.976367
