40

Cu	0.000000	0.000000	0.000000
O	2.001160	2.001160	0.000000
O	0.000000	2.001160	2.001160
O	2.001160	0.000000	2.001160
Te	2.001160	2.001160	2.001160
Cu	0.000000	0.000000	4.002332
O	2.001160	2.001160	4.002332
O	0.000000	2.001160	6.003492
O	2.001160	0.000000	6.003492
Te	2.001160	2.001160	6.003492
Cu	0.000000	4.002332	0.000000
O	2.001160	6.003492	0.000000
O	0.000000	6.003492	2.001160
O	2.001160	4.002332	2.001160
Te	2.001160	6.003492	2.001160
Cu	0.000000	4.002332	4.002332
O	2.001160	6.003492	4.002332
O	0.000000	6.003492	6.003492
O	2.001160	4.002332	6.003492
Te	2.001160	6.003492	6.003492
Cu	4.002332	0.000000	0.000000
O	6.003492	2.001160	0.000000
O	4.002332	2.001160	2.001160
O	6.003492	0.000000	2.001160
Te	6.003492	2.001160	2.001160
Cu	4.002332	0.000000	4.002332
O	6.003492	2.001160	4.002332
O	4.002332	2.001160	6.003492
O	6.003492	0.000000	6.003492
Te	6.003492	2.001160	6.003492
Cu	4.002332	4.002332	0.000000
O	6.003492	6.003492	0.000000
O	4.002332	6.003492	2.001160
O	6.003492	4.002332	2.001160
Te	6.003492	6.003492	2.001160
Cu	4.002332	4.002332	4.002332
O	6.003492	6.003492	4.002332
O	4.002332	6.003492	6.003492
O	6.003492	4.002332	6.003492
Te	6.003492	6.003492	6.003492
