40

Ir	1.967225	1.967225	1.967225
O	0.000000	1.967225	1.967225
O	1.967225	0.000000	1.967225
O	1.967225	1.967225	0.000000
Ru	0.000000	0.000000	0.000000
Ir	1.967225	1.967225	5.901676
O	0.000000	1.967225	5.901676
O	1.967225	0.000000	5.901676
O	1.967225	1.967225	3.934450
Ru	0.000000	0.000000	3.934450
Ir	1.967225	5.901676	1.967225
O	0.000000	5.901676	1.967225
O	1.967225	3.934450	1.967225
O	1.967225	5.901676	0.000000
Ru	0.000000	3.934450	0.000000
Ir	1.967225	5.901676	5.901676
O	0.000000	5.901676	5.901676
O	1.967225	3.934450	5.901676
O	1.967225	5.901676	3.934450
Ru	0.000000	3.934450	3.934450
Ir	5.901676	1.967225	1.967225
O	3.934450	1.967225	1.967225
O	5.901676	0.000000	1.967225
O	5.901676	1.967225	0.000000
Ru	3.934450	0.000000	0.000000
Ir	5.901676	1.967225	5.901676
O	3.934450	1.967225	5.901676
O	5.901676	0.000000	5.901676
O	5.901676	1.967225	3.934450
Ru	3.934450	0.000000	3.934450
Ir	5.901676	5.901676	1.967225
O	3.934450	5.901676	1.967225
O	5.901676	3.934450	1.967225
O	5.901676	5.901676	0.000000
Ru	3.934450	3.934450	0.000000
Ir	5.901676	5.901676	5.901676
O	3.934450	5.901676	5.901676
O	5.901676	3.934450	5.901676
O	5.901676	5.901676	3.934450
Ru	3.934450	3.934450	3.934450
