40

Nb	2.014380	2.014380	2.014380
O	0.000000	2.014380	2.014380
O	2.014380	0.000000	2.014380
O	2.014380	2.014380	0.000000
S	0.000000	0.000000	0.000000
Nb	2.014380	2.014380	6.043139
O	0.000000	2.014380	6.043139
O	2.014380	0.000000	6.043139
O	2.014380	2.014380	4.028759
S	0.000000	0.000000	4.028759
Nb	2.014380	6.043139	2.014380
O	0.000000	6.043139	2.014380
O	2.014380	4.028759	2.014380
O	2.014380	6.043139	0.000000
S	0.000000	4.028759	0.000000
Nb	2.014380	6.043139	6.043139
O	0.000000	6.043139	6.043139
O	2.014380	4.028759	6.043139
O	2.014380	6.043139	4.028759
S	0.000000	4.028759	4.028759
Nb	6.043139	2.014380	2.014380
O	4.028759	2.014380	2.014380
O	6.043139	0.000000	2.014380
O	6.043139	2.014380	0.000000
S	4.028759	0.000000	0.000000
Nb	6.043139	2.014380	6.043139
O	4.028759	2.014380	6.043139
O	6.043139	0.000000	6.043139
O	6.043139	2.014380	4.028759
S	4.028759	0.000000	4.028759
Nb	6.043139	6.043139	2.014380
O	4.028759	6.043139	2.014380
O	6.043139	4.028759	2.014380
O	6.043139	6.043139	0.000000
S	4.028759	4.028759	0.000000
Nb	6.043139	6.043139	6.043139
O	4.028759	6.043139	6.043139
O	6.043139	4.028759	6.043139
O	6.043139	6.043139	4.028759
S	4.028759	4.028759	4.028759
