40

Ac	2.262660	2.262660	2.262660
Al	0.000000	0.000000	0.000000
O	2.262660	0.000000	2.262660
O	0.000000	2.262660	2.262660
O	2.262660	2.262660	0.000000
Ac	2.262660	2.262660	6.787965
Al	0.000000	0.000000	4.525305
O	2.262660	0.000000	6.787965
O	0.000000	2.262660	6.787965
O	2.262660	2.262660	4.525305
Ac	2.262660	6.787965	2.262660
Al	0.000000	4.525305	0.000000
O	2.262660	4.525305	2.262660
O	0.000000	6.787965	2.262660
O	2.262660	6.787965	0.000000
Ac	2.262660	6.787965	6.787965
Al	0.000000	4.525305	4.525305
O	2.262660	4.525305	6.787965
O	0.000000	6.787965	6.787965
O	2.262660	6.787965	4.525305
Ac	6.787965	2.262660	2.262660
Al	4.525305	0.000000	0.000000
O	6.787965	0.000000	2.262660
O	4.525305	2.262660	2.262660
O	6.787965	2.262660	0.000000
Ac	6.787965	2.262660	6.787965
Al	4.525305	0.000000	4.525305
O	6.787965	0.000000	6.787965
O	4.525305	2.262660	6.787965
O	6.787965	2.262660	4.525305
Ac	6.787965	6.787965	2.262660
Al	4.525305	4.525305	0.000000
O	6.787965	4.525305	2.262660
O	4.525305	6.787965	2.262660
O	6.787965	6.787965	0.000000
Ac	6.787965	6.787965	6.787965
Al	4.525305	4.525305	4.525305
O	6.787965	4.525305	6.787965
O	4.525305	6.787965	6.787965
O	6.787965	6.787965	4.525305
