40

Br	2.039573	2.039573	2.039573
O	0.000000	2.039573	2.039573
O	2.039573	0.000000	2.039573
O	2.039573	2.039573	0.000000
Os	0.000000	0.000000	0.000000
Br	2.039573	2.039573	6.118719
O	0.000000	2.039573	6.118719
O	2.039573	0.000000	6.118719
O	2.039573	2.039573	4.079146
Os	0.000000	0.000000	4.079146
Br	2.039573	6.118719	2.039573
O	0.000000	6.118719	2.039573
O	2.039573	4.079146	2.039573
O	2.039573	6.118719	0.000000
Os	0.000000	4.079146	0.000000
Br	2.039573	6.118719	6.118719
O	0.000000	6.118719	6.118719
O	2.039573	4.079146	6.118719
O	2.039573	6.118719	4.079146
Os	0.000000	4.079146	4.079146
Br	6.118719	2.039573	2.039573
O	4.079146	2.039573	2.039573
O	6.118719	0.000000	2.039573
O	6.118719	2.039573	0.000000
Os	4.079146	0.000000	0.000000
Br	6.118719	2.039573	6.118719
O	4.079146	2.039573	6.118719
O	6.118719	0.000000	6.118719
O	6.118719	2.039573	4.079146
Os	4.079146	0.000000	4.079146
Br	6.118719	6.118719	2.039573
O	4.079146	6.118719	2.039573
O	6.118719	4.079146	2.039573
O	6.118719	6.118719	0.000000
Os	4.079146	4.079146	0.000000
Br	6.118719	6.118719	6.118719
O	4.079146	6.118719	6.118719
O	6.118719	4.079146	6.118719
O	6.118719	6.118719	4.079146
Os	4.079146	4.079146	4.079146
