40

Fe	1.884896	1.884896	1.884896
Nb	0.000000	0.000000	0.000000
O	1.884896	1.884896	0.000000
O	1.884896	0.000000	1.884896
O	0.000000	1.884896	1.884896
Fe	1.884896	1.884896	5.654692
Nb	0.000000	0.000000	3.769796
O	1.884896	1.884896	3.769796
O	1.884896	0.000000	5.654692
O	0.000000	1.884896	5.654692
Fe	1.884896	5.654692	1.884896
Nb	0.000000	3.769796	0.000000
O	1.884896	5.654692	0.000000
O	1.884896	3.769796	1.884896
O	0.000000	5.654692	1.884896
Fe	1.884896	5.654692	5.654692
Nb	0.000000	3.769796	3.769796
O	1.884896	5.654692	3.769796
O	1.884896	3.769796	5.654692
O	0.000000	5.654692	5.654692
Fe	5.654692	1.884896	1.884896
Nb	3.769796	0.000000	0.000000
O	5.654692	1.884896	0.000000
O	5.654692	0.000000	1.884896
O	3.769796	1.884896	1.884896
Fe	5.654692	1.884896	5.654692
Nb	3.769796	0.000000	3.769796
O	5.654692	1.884896	3.769796
O	5.654692	0.000000	5.654692
O	3.769796	1.884896	5.654692
Fe	5.654692	5.654692	1.884896
Nb	3.769796	3.769796	0.000000
O	5.654692	5.654692	0.000000
O	5.654692	3.769796	1.884896
O	3.769796	5.654692	1.884896
Fe	5.654692	5.654692	5.654692
Nb	3.769796	3.769796	3.769796
O	5.654692	5.654692	3.769796
O	5.654692	3.769796	5.654692
O	3.769796	5.654692	5.654692
