112

Dy	0.000000	0.000000	0.000000
Dy	2.259018	-2.259738	-2.259738
Ir	-1.129509	-1.129869	-3.389606
Ir	3.388526	1.129869	-1.129869
Ir	5.647544	-1.129869	-1.129869
Ir	1.129509	1.129869	-3.389606
O	3.543863	-0.973859	-0.973859
O	-0.974172	0.973859	-3.545616
O	0.974172	-0.973859	-3.545616
O	1.284846	1.285878	-1.285878
O	5.492207	0.973859	-0.973859
O	1.284846	3.233597	-3.233597
O	3.233189	3.233597	-1.285878
O	3.233189	1.285878	-3.233597
Dy	4.518035	4.519475	0.000000
Dy	6.777053	2.259738	-2.259738
Ir	3.388526	3.389606	-3.389606
Ir	7.906562	5.649344	-1.129869
Ir	10.165579	3.389606	-1.129869
Ir	5.647544	5.649344	-3.389606
O	8.061899	3.545616	-0.973859
O	3.543864	5.493335	-3.545616
O	5.492207	3.545616	-3.545616
O	5.802881	5.805353	-1.285878
O	10.010242	5.493335	-0.973859
O	5.802881	7.753072	-3.233597
O	7.751225	7.753072	-1.285878
O	7.751225	5.805353	-3.233597
Dy	-4.518035	0.000000	-4.519475
Dy	-2.259018	-2.259738	-6.779213
Ir	-5.647544	-1.129869	-7.909082
Ir	-1.129509	1.129869	-5.649344
Ir	1.129509	-1.129869	-5.649344
Ir	-3.388526	1.129869	-7.909082
O	-0.974172	-0.973859	-5.493335
O	-5.492207	0.973859	-8.065091
O	-3.543863	-0.973859	-8.065091
O	-3.233189	1.285878	-5.805353
O	0.974172	0.973859	-5.493335
O	-3.233189	3.233597	-7.753072
O	-1.284846	3.233597	-5.805353
O	-1.284846	1.285878	-7.753072
Dy	0.000000	4.519475	-4.519475
Dy	2.259018	2.259738	-6.779213
Ir	-1.129509	3.389606	-7.909082
Ir	3.388526	5.649344	-5.649344
Ir	5.647544	3.389606	-5.649344
Ir	1.129509	5.649344	-7.909082
O	3.543863	3.545616	-5.493335
O	-0.974172	5.493335	-8.065091
O	0.974172	3.545616	-8.065091
O	1.284846	5.805353	-5.805353
O	5.492207	5.493335	-5.493335
O	1.284846	7.753072	-7.753072
O	3.233189	7.753072	-5.805353
O	3.233189	5.805353	-7.753072
Dy	4.518035	-4.519475	0.000000
Dy	6.777053	-6.779213	-2.259738
Ir	3.388526	-5.649344	-3.389606
Ir	7.906562	-3.389606	-1.129869
Ir	10.165579	-5.649344	-1.129869
Ir	5.647544	-3.389606	-3.389606
O	8.061899	-5.493335	-0.973859
O	3.543864	-3.545616	-3.545616
O	5.492207	-5.493335	-3.545616
O	5.802881	-3.233597	-1.285878
O	10.010242	-3.545616	-0.973859
O	5.802881	-1.285878	-3.233597
O	7.751225	-1.285878	-1.285878
O	7.751225	-3.233597	-3.233597
Dy	9.036070	0.000000	0.000000
Dy	11.295088	-2.259738	-2.259738
Ir	7.906562	-1.129869	-3.389606
Ir	12.424597	1.129869	-1.129869
Ir	14.683614	-1.129869	-1.129869
Ir	10.165579	1.129869	-3.389606
O	12.579934	-0.973859	-0.973859
O	8.061899	0.973859	-3.545616
O	10.010242	-0.973859	-3.545616
O	10.320916	1.285878	-1.285878
O	14.528277	0.973859	-0.973859
O	10.320916	3.233597	-3.233597
O	12.269260	3.233597	-1.285878
O	12.269260	1.285878	-3.233597
Dy	0.000000	-4.519475	-4.519475
Dy	2.259018	-6.779213	-6.779213
Ir	-1.129509	-5.649344	-7.909082
Ir	3.388526	-3.389606	-5.649344
Ir	5.647544	-5.649344	-5.649344
Ir	1.129509	-3.389606	-7.909082
O	3.543863	-5.493335	-5.493335
O	-0.974172	-3.545616	-8.065091
O	0.974172	-5.493335	-8.065091
O	1.284846	-3.233597	-5.805353
O	5.492207	-3.545616	-5.493335
O	1.284846	-1.285878	-7.753072
O	3.233189	-1.285878	-5.805353
O	3.233189	-3.233597	-7.753072
Dy	4.518035	0.000000	-4.519475
Dy	6.777053	-2.259738	-6.779213
Ir	3.388526	-1.129869	-7.909082
Ir	7.906562	1.129869	-5.649344
Ir	10.165579	-1.129869	-5.649344
Ir	5.647544	1.129869	-7.909082
O	8.061899	-0.973859	-5.493335
O	3.543864	0.973859	-8.065091
O	5.492207	-0.973859	-8.065091
O	5.802881	1.285878	-5.805353
O	10.010242	0.973859	-5.493335
O	5.802881	3.233597	-7.753072
O	7.751225	3.233597	-5.805353
O	7.751225	1.285878	-7.753072
