40

Be	0.000000	0.000000	0.000000
Li	1.773231	1.773231	1.773231
O	0.000000	1.773231	1.773231
O	1.773231	0.000000	1.773231
O	1.773231	1.773231	0.000000
Be	0.000000	0.000000	3.546461
Li	1.773231	1.773231	5.319692
O	0.000000	1.773231	5.319692
O	1.773231	0.000000	5.319692
O	1.773231	1.773231	3.546461
Be	0.000000	3.546461	0.000000
Li	1.773231	5.319692	1.773231
O	0.000000	5.319692	1.773231
O	1.773231	3.546461	1.773231
O	1.773231	5.319692	0.000000
Be	0.000000	3.546461	3.546461
Li	1.773231	5.319692	5.319692
O	0.000000	5.319692	5.319692
O	1.773231	3.546461	5.319692
O	1.773231	5.319692	3.546461
Be	3.546461	0.000000	0.000000
Li	5.319692	1.773231	1.773231
O	3.546461	1.773231	1.773231
O	5.319692	0.000000	1.773231
O	5.319692	1.773231	0.000000
Be	3.546461	0.000000	3.546461
Li	5.319692	1.773231	5.319692
O	3.546461	1.773231	5.319692
O	5.319692	0.000000	5.319692
O	5.319692	1.773231	3.546461
Be	3.546461	3.546461	0.000000
Li	5.319692	5.319692	1.773231
O	3.546461	5.319692	1.773231
O	5.319692	3.546461	1.773231
O	5.319692	5.319692	0.000000
Be	3.546461	3.546461	3.546461
Li	5.319692	5.319692	5.319692
O	3.546461	5.319692	5.319692
O	5.319692	3.546461	5.319692
O	5.319692	5.319692	3.546461
