40

Cu	0.000000	0.000000	0.000000
O	0.000000	1.883888	1.883888
O	1.883888	0.000000	1.883888
O	1.883888	1.883888	0.000000
Zn	1.883888	1.883888	1.883888
Cu	0.000000	0.000000	3.767776
O	0.000000	1.883888	5.651664
O	1.883888	0.000000	5.651664
O	1.883888	1.883888	3.767776
Zn	1.883888	1.883888	5.651664
Cu	0.000000	3.767776	0.000000
O	0.000000	5.651664	1.883888
O	1.883888	3.767776	1.883888
O	1.883888	5.651664	0.000000
Zn	1.883888	5.651664	1.883888
Cu	0.000000	3.767776	3.767776
O	0.000000	5.651664	5.651664
O	1.883888	3.767776	5.651664
O	1.883888	5.651664	3.767776
Zn	1.883888	5.651664	5.651664
Cu	3.767776	0.000000	0.000000
O	3.767776	1.883888	1.883888
O	5.651664	0.000000	1.883888
O	5.651664	1.883888	0.000000
Zn	5.651664	1.883888	1.883888
Cu	3.767776	0.000000	3.767776
O	3.767776	1.883888	5.651664
O	5.651664	0.000000	5.651664
O	5.651664	1.883888	3.767776
Zn	5.651664	1.883888	5.651664
Cu	3.767776	3.767776	0.000000
O	3.767776	5.651664	1.883888
O	5.651664	3.767776	1.883888
O	5.651664	5.651664	0.000000
Zn	5.651664	5.651664	1.883888
Cu	3.767776	3.767776	3.767776
O	3.767776	5.651664	5.651664
O	5.651664	3.767776	5.651664
O	5.651664	5.651664	3.767776
Zn	5.651664	5.651664	5.651664
