112

Na	0.000000	0.000000	0.000000
Na	2.261317	-2.262168	-2.262168
O	3.579726	-0.942954	-0.942954
O	-0.942907	0.942954	-3.581383
O	0.942907	-0.942954	-3.581383
O	1.318410	1.319214	-1.319214
O	5.465540	0.942954	-0.942954
O	1.318410	3.205122	-3.205122
O	3.204223	3.205122	-1.319214
O	3.204223	1.319214	-3.205122
Pt	-1.130663	-1.131084	-3.393252
Pt	5.653296	-1.131084	-1.131084
Pt	3.391980	1.131084	-1.131084
Pt	1.130663	1.131084	-3.393252
Na	4.522635	4.524336	0.000000
Na	6.783951	2.262168	-2.262168
O	8.102361	3.581382	-0.942954
O	3.579728	5.467290	-3.581383
O	5.465542	3.581382	-3.581383
O	5.841044	5.843550	-1.319214
O	9.988175	5.467290	-0.942954
O	5.841044	7.729458	-3.205122
O	7.726858	7.729458	-1.319214
O	7.726858	5.843550	-3.205122
Pt	3.391971	3.393252	-3.393252
Pt	10.175931	3.393252	-1.131084
Pt	7.914614	5.655420	-1.131084
Pt	5.653298	5.655420	-3.393252
Na	-4.522635	0.000000	-4.524336
Na	-2.261318	-2.262168	-6.786504
O	-0.942908	-0.942954	-5.467290
O	-5.465542	0.942954	-8.105719
O	-3.579728	-0.942954	-8.105719
O	-3.204225	1.319214	-5.843550
O	0.942905	0.942954	-5.467290
O	-3.204225	3.205122	-7.729458
O	-1.318411	3.205122	-5.843550
O	-1.318411	1.319214	-7.729458
Pt	-5.653298	-1.131084	-7.917589
Pt	1.130662	-1.131084	-5.655420
Pt	-1.130655	1.131084	-5.655420
Pt	-3.391971	1.131084	-7.917589
Na	0.000000	4.524336	-4.524336
Na	2.261317	2.262168	-6.786504
O	3.579726	3.581382	-5.467290
O	-0.942907	5.467290	-8.105719
O	0.942907	3.581382	-8.105719
O	1.318410	5.843550	-5.843550
O	5.465540	5.467290	-5.467290
O	1.318410	7.729458	-7.729458
O	3.204223	7.729458	-5.843550
O	3.204223	5.843550	-7.729458
Pt	-1.130663	3.393252	-7.917589
Pt	5.653296	3.393252	-5.655420
Pt	3.391980	5.655420	-5.655420
Pt	1.130663	5.655420	-7.917589
Na	4.522635	-4.524336	0.000000
Na	6.783951	-6.786504	-2.262168
O	8.102361	-5.467290	-0.942954
O	3.579728	-3.581382	-3.581383
O	5.465542	-5.467290	-3.581383
O	5.841044	-3.205122	-1.319214
O	9.988175	-3.581382	-0.942954
O	5.841044	-1.319214	-3.205122
O	7.726858	-1.319214	-1.319214
O	7.726858	-3.205122	-3.205122
Pt	3.391971	-5.655420	-3.393252
Pt	10.175931	-5.655420	-1.131084
Pt	7.914614	-3.393252	-1.131084
Pt	5.653298	-3.393252	-3.393252
Na	9.045269	0.000000	0.000000
Na	11.306586	-2.262168	-2.262168
O	12.624996	-0.942954	-0.942954
O	8.102362	0.942954	-3.581383
O	9.988176	-0.942954	-3.581383
O	10.363679	1.319214	-1.319214
O	14.510809	0.942954	-0.942954
O	10.363679	3.205122	-3.205122
O	12.249493	3.205122	-1.319214
O	12.249493	1.319214	-3.205122
Pt	7.914606	-1.131084	-3.393252
Pt	14.698566	-1.131084	-1.131084
Pt	12.437249	1.131084	-1.131084
Pt	10.175933	1.131084	-3.393252
Na	0.000000	-4.524336	-4.524336
Na	2.261317	-6.786504	-6.786504
O	3.579726	-5.467290	-5.467290
O	-0.942907	-3.581382	-8.105719
O	0.942907	-5.467290	-8.105719
O	1.318410	-3.205122	-5.843550
O	5.465540	-3.581382	-5.467290
O	1.318410	-1.319214	-7.729458
O	3.204223	-1.319214	-5.843550
O	3.204223	-3.205122	-7.729458
Pt	-1.130663	-5.655420	-7.917589
Pt	5.653296	-5.655420	-5.655420
Pt	3.391980	-3.393252	-5.655420
Pt	1.130663	-3.393252	-7.917589
Na	4.522635	0.000000	-4.524336
Na	6.783951	-2.262168	-6.786504
O	8.102361	-0.942954	-5.467290
O	3.579728	0.942954	-8.105719
O	5.465542	-0.942954	-8.105719
O	5.841044	1.319214	-5.843550
O	9.988175	0.942954	-5.467290
O	5.841044	3.205122	-7.729458
O	7.726858	3.205122	-5.843550
O	7.726858	1.319214	-7.729458
Pt	3.391971	-1.131084	-7.917589
Pt	10.175931	-1.131084	-5.655420
Pt	7.914614	1.131084	-5.655420
Pt	5.653298	1.131084	-7.917589
