40

Ga	1.896535	1.896535	1.896535
N	0.000000	0.000000	0.000000
O	0.000000	1.896535	1.896535
O	1.896535	0.000000	1.896535
O	1.896535	1.896535	0.000000
Ga	1.896535	1.896535	5.689606
N	0.000000	0.000000	3.793070
O	0.000000	1.896535	5.689606
O	1.896535	0.000000	5.689606
O	1.896535	1.896535	3.793070
Ga	1.896535	5.689606	1.896535
N	0.000000	3.793070	0.000000
O	0.000000	5.689606	1.896535
O	1.896535	3.793070	1.896535
O	1.896535	5.689606	0.000000
Ga	1.896535	5.689606	5.689606
N	0.000000	3.793070	3.793070
O	0.000000	5.689606	5.689606
O	1.896535	3.793070	5.689606
O	1.896535	5.689606	3.793070
Ga	5.689606	1.896535	1.896535
N	3.793070	0.000000	0.000000
O	3.793070	1.896535	1.896535
O	5.689606	0.000000	1.896535
O	5.689606	1.896535	0.000000
Ga	5.689606	1.896535	5.689606
N	3.793070	0.000000	3.793070
O	3.793070	1.896535	5.689606
O	5.689606	0.000000	5.689606
O	5.689606	1.896535	3.793070
Ga	5.689606	5.689606	1.896535
N	3.793070	3.793070	0.000000
O	3.793070	5.689606	1.896535
O	5.689606	3.793070	1.896535
O	5.689606	5.689606	0.000000
Ga	5.689606	5.689606	5.689606
N	3.793070	3.793070	3.793070
O	3.793070	5.689606	5.689606
O	5.689606	3.793070	5.689606
O	5.689606	5.689606	3.793070
