40

Ga	0.000000	0.000000	0.000000
N	1.745194	1.745194	1.745194
O	0.000000	1.745194	1.745194
O	1.745194	0.000000	1.745194
O	1.745194	1.745194	0.000000
Ga	0.000000	0.000000	3.490389
N	1.745194	1.745194	5.235583
O	0.000000	1.745194	5.235583
O	1.745194	0.000000	5.235583
O	1.745194	1.745194	3.490389
Ga	0.000000	3.490389	0.000000
N	1.745194	5.235583	1.745194
O	0.000000	5.235583	1.745194
O	1.745194	3.490389	1.745194
O	1.745194	5.235583	0.000000
Ga	0.000000	3.490389	3.490389
N	1.745194	5.235583	5.235583
O	0.000000	5.235583	5.235583
O	1.745194	3.490389	5.235583
O	1.745194	5.235583	3.490389
Ga	3.490389	0.000000	0.000000
N	5.235583	1.745194	1.745194
O	3.490389	1.745194	1.745194
O	5.235583	0.000000	1.745194
O	5.235583	1.745194	0.000000
Ga	3.490389	0.000000	3.490389
N	5.235583	1.745194	5.235583
O	3.490389	1.745194	5.235583
O	5.235583	0.000000	5.235583
O	5.235583	1.745194	3.490389
Ga	3.490389	3.490389	0.000000
N	5.235583	5.235583	1.745194
O	3.490389	5.235583	1.745194
O	5.235583	3.490389	1.745194
O	5.235583	5.235583	0.000000
Ga	3.490389	3.490389	3.490389
N	5.235583	5.235583	5.235583
O	3.490389	5.235583	5.235583
O	5.235583	3.490389	5.235583
O	5.235583	5.235583	3.490389
