40

O	0.000000	1.852200	1.852200
O	1.852200	0.000000	1.852200
O	1.852200	1.852200	0.000000
Si	1.852200	1.852200	1.852200
Tl	0.000000	0.000000	0.000000
O	0.000000	1.852200	5.556600
O	1.852200	0.000000	5.556600
O	1.852200	1.852200	3.704400
Si	1.852200	1.852200	5.556600
Tl	0.000000	0.000000	3.704400
O	0.000000	5.556600	1.852200
O	1.852200	3.704400	1.852200
O	1.852200	5.556600	0.000000
Si	1.852200	5.556600	1.852200
Tl	0.000000	3.704400	0.000000
O	0.000000	5.556600	5.556600
O	1.852200	3.704400	5.556600
O	1.852200	5.556600	3.704400
Si	1.852200	5.556600	5.556600
Tl	0.000000	3.704400	3.704400
O	3.704400	1.852200	1.852200
O	5.556600	0.000000	1.852200
O	5.556600	1.852200	0.000000
Si	5.556600	1.852200	1.852200
Tl	3.704400	0.000000	0.000000
O	3.704400	1.852200	5.556600
O	5.556600	0.000000	5.556600
O	5.556600	1.852200	3.704400
Si	5.556600	1.852200	5.556600
Tl	3.704400	0.000000	3.704400
O	3.704400	5.556600	1.852200
O	5.556600	3.704400	1.852200
O	5.556600	5.556600	0.000000
Si	5.556600	5.556600	1.852200
Tl	3.704400	3.704400	0.000000
O	3.704400	5.556600	5.556600
O	5.556600	3.704400	5.556600
O	5.556600	5.556600	3.704400
Si	5.556600	5.556600	5.556600
Tl	3.704400	3.704400	3.704400
