112

Be	0.000000	0.000000	0.000000
Be	2.269518	-2.269874	-2.269874
O	3.272006	-1.266698	-1.266698
O	-1.267030	1.266698	-3.273051
O	1.267030	-1.266698	-3.273051
O	1.002488	1.003177	-1.003177
O	5.806067	1.266698	-1.266698
O	1.002488	3.536572	-3.536572
O	3.536548	3.536572	-1.003177
O	3.536548	1.003177	-3.536572
Pb	-1.134759	-1.134937	-3.404811
Pb	3.404277	1.134937	-1.134937
Pb	5.673796	-1.134937	-1.134937
Pb	1.134759	1.134937	-3.404811
Be	4.539037	4.539749	0.000000
Be	6.808555	2.269874	-2.269874
O	7.811043	3.273051	-1.266698
O	3.272006	5.806446	-3.273051
O	5.806067	3.273051	-3.273051
O	5.541525	5.542925	-1.003177
O	10.345103	5.806446	-1.266698
O	5.541525	8.076320	-3.536572
O	8.075585	8.076320	-1.003177
O	8.075585	5.542925	-3.536572
Pb	3.404277	3.404811	-3.404811
Pb	7.943314	5.674686	-1.134937
Pb	10.212832	3.404811	-1.134937
Pb	5.673796	5.674686	-3.404811
Be	-4.539037	0.000000	-4.539749
Be	-2.269518	-2.269874	-6.809623
O	-1.267030	-1.266698	-5.806446
O	-5.806067	1.266698	-7.812799
O	-3.272006	-1.266698	-7.812799
O	-3.536548	1.003177	-5.542925
O	1.267030	1.266698	-5.806446
O	-3.536548	3.536572	-8.076320
O	-1.002488	3.536572	-5.542925
O	-1.002488	1.003177	-8.076320
Pb	-5.673796	-1.134937	-7.944560
Pb	-1.134759	1.134937	-5.674686
Pb	1.134759	-1.134937	-5.674686
Pb	-3.404277	1.134937	-7.944560
Be	0.000000	4.539749	-4.539749
Be	2.269518	2.269874	-6.809623
O	3.272006	3.273051	-5.806446
O	-1.267030	5.806446	-7.812799
O	1.267030	3.273051	-7.812799
O	1.002488	5.542925	-5.542925
O	5.806067	5.806446	-5.806446
O	1.002488	8.076320	-8.076320
O	3.536548	8.076320	-5.542925
O	3.536548	5.542925	-8.076320
Pb	-1.134759	3.404811	-7.944560
Pb	3.404277	5.674686	-5.674686
Pb	5.673796	3.404811	-5.674686
Pb	1.134759	5.674686	-7.944560
Be	4.539037	-4.539749	0.000000
Be	6.808555	-6.809623	-2.269874
O	7.811043	-5.806446	-1.266698
O	3.272006	-3.273051	-3.273051
O	5.806067	-5.806446	-3.273051
O	5.541525	-3.536572	-1.003177
O	10.345103	-3.273051	-1.266698
O	5.541525	-1.003177	-3.536572
O	8.075585	-1.003177	-1.003177
O	8.075585	-3.536572	-3.536572
Pb	3.404277	-5.674686	-3.404811
Pb	7.943314	-3.404811	-1.134937
Pb	10.212832	-5.674686	-1.134937
Pb	5.673796	-3.404811	-3.404811
Be	9.078073	0.000000	0.000000
Be	11.347591	-2.269874	-2.269874
O	12.350079	-1.266698	-1.266698
O	7.811043	1.266698	-3.273051
O	10.345103	-1.266698	-3.273051
O	10.080561	1.003177	-1.003177
O	14.884140	1.266698	-1.266698
O	10.080561	3.536572	-3.536572
O	12.614621	3.536572	-1.003177
O	12.614621	1.003177	-3.536572
Pb	7.943314	-1.134937	-3.404811
Pb	12.482350	1.134937	-1.134937
Pb	14.751869	-1.134937	-1.134937
Pb	10.212832	1.134937	-3.404811
Be	0.000000	-4.539749	-4.539749
Be	2.269518	-6.809623	-6.809623
O	3.272006	-5.806446	-5.806446
O	-1.267030	-3.273051	-7.812799
O	1.267030	-5.806446	-7.812799
O	1.002488	-3.536572	-5.542925
O	5.806067	-3.273051	-5.806446
O	1.002488	-1.003177	-8.076320
O	3.536548	-1.003177	-5.542925
O	3.536548	-3.536572	-8.076320
Pb	-1.134759	-5.674686	-7.944560
Pb	3.404277	-3.404811	-5.674686
Pb	5.673796	-5.674686	-5.674686
Pb	1.134759	-3.404811	-7.944560
Be	4.539037	0.000000	-4.539749
Be	6.808555	-2.269874	-6.809623
O	7.811043	-1.266698	-5.806446
O	3.272006	1.266698	-7.812799
O	5.806067	-1.266698	-7.812799
O	5.541525	1.003177	-5.542925
O	10.345103	1.266698	-5.806446
O	5.541525	3.536572	-8.076320
O	8.075585	3.536572	-5.542925
O	8.075585	1.003177	-8.076320
Pb	3.404277	-1.134937	-7.944560
Pb	7.943314	1.134937	-5.674686
Pb	10.212832	-1.134937	-5.674686
Pb	5.673796	1.134937	-7.944560
