40

Li	1.790273	1.790273	1.790273
O	0.000000	1.790273	1.790273
O	1.790273	0.000000	1.790273
O	1.790273	1.790273	0.000000
Os	0.000000	0.000000	0.000000
Li	1.790273	1.790273	5.370820
O	0.000000	1.790273	5.370820
O	1.790273	0.000000	5.370820
O	1.790273	1.790273	3.580546
Os	0.000000	0.000000	3.580546
Li	1.790273	5.370820	1.790273
O	0.000000	5.370820	1.790273
O	1.790273	3.580546	1.790273
O	1.790273	5.370820	0.000000
Os	0.000000	3.580546	0.000000
Li	1.790273	5.370820	5.370820
O	0.000000	5.370820	5.370820
O	1.790273	3.580546	5.370820
O	1.790273	5.370820	3.580546
Os	0.000000	3.580546	3.580546
Li	5.370820	1.790273	1.790273
O	3.580546	1.790273	1.790273
O	5.370820	0.000000	1.790273
O	5.370820	1.790273	0.000000
Os	3.580546	0.000000	0.000000
Li	5.370820	1.790273	5.370820
O	3.580546	1.790273	5.370820
O	5.370820	0.000000	5.370820
O	5.370820	1.790273	3.580546
Os	3.580546	0.000000	3.580546
Li	5.370820	5.370820	1.790273
O	3.580546	5.370820	1.790273
O	5.370820	3.580546	1.790273
O	5.370820	5.370820	0.000000
Os	3.580546	3.580546	0.000000
Li	5.370820	5.370820	5.370820
O	3.580546	5.370820	5.370820
O	5.370820	3.580546	5.370820
O	5.370820	5.370820	3.580546
Os	3.580546	3.580546	3.580546
