40

Ir	1.960879	1.960879	1.960879
O	0.000000	1.960879	1.960879
O	1.960879	0.000000	1.960879
O	1.960879	1.960879	0.000000
Si	0.000000	0.000000	0.000000
Ir	1.960879	1.960879	5.882637
O	0.000000	1.960879	5.882637
O	1.960879	0.000000	5.882637
O	1.960879	1.960879	3.921758
Si	0.000000	0.000000	3.921758
Ir	1.960879	5.882637	1.960879
O	0.000000	5.882637	1.960879
O	1.960879	3.921758	1.960879
O	1.960879	5.882637	0.000000
Si	0.000000	3.921758	0.000000
Ir	1.960879	5.882637	5.882637
O	0.000000	5.882637	5.882637
O	1.960879	3.921758	5.882637
O	1.960879	5.882637	3.921758
Si	0.000000	3.921758	3.921758
Ir	5.882637	1.960879	1.960879
O	3.921758	1.960879	1.960879
O	5.882637	0.000000	1.960879
O	5.882637	1.960879	0.000000
Si	3.921758	0.000000	0.000000
Ir	5.882637	1.960879	5.882637
O	3.921758	1.960879	5.882637
O	5.882637	0.000000	5.882637
O	5.882637	1.960879	3.921758
Si	3.921758	0.000000	3.921758
Ir	5.882637	5.882637	1.960879
O	3.921758	5.882637	1.960879
O	5.882637	3.921758	1.960879
O	5.882637	5.882637	0.000000
Si	3.921758	3.921758	0.000000
Ir	5.882637	5.882637	5.882637
O	3.921758	5.882637	5.882637
O	5.882637	3.921758	5.882637
O	5.882637	5.882637	3.921758
Si	3.921758	3.921758	3.921758
