40

B	1.717473	1.717473	1.717473
Nb	0.000000	0.000000	0.000000
O	0.000000	1.717473	1.717473
O	1.717473	0.000000	1.717473
O	1.717473	1.717473	0.000000
B	1.717473	1.717473	5.152419
Nb	0.000000	0.000000	3.434946
O	0.000000	1.717473	5.152419
O	1.717473	0.000000	5.152419
O	1.717473	1.717473	3.434946
B	1.717473	5.152419	1.717473
Nb	0.000000	3.434946	0.000000
O	0.000000	5.152419	1.717473
O	1.717473	3.434946	1.717473
O	1.717473	5.152419	0.000000
B	1.717473	5.152419	5.152419
Nb	0.000000	3.434946	3.434946
O	0.000000	5.152419	5.152419
O	1.717473	3.434946	5.152419
O	1.717473	5.152419	3.434946
B	5.152419	1.717473	1.717473
Nb	3.434946	0.000000	0.000000
O	3.434946	1.717473	1.717473
O	5.152419	0.000000	1.717473
O	5.152419	1.717473	0.000000
B	5.152419	1.717473	5.152419
Nb	3.434946	0.000000	3.434946
O	3.434946	1.717473	5.152419
O	5.152419	0.000000	5.152419
O	5.152419	1.717473	3.434946
B	5.152419	5.152419	1.717473
Nb	3.434946	3.434946	0.000000
O	3.434946	5.152419	1.717473
O	5.152419	3.434946	1.717473
O	5.152419	5.152419	0.000000
B	5.152419	5.152419	5.152419
Nb	3.434946	3.434946	3.434946
O	3.434946	5.152419	5.152419
O	5.152419	3.434946	5.152419
O	5.152419	5.152419	3.434946
