40

B	1.712930	1.712930	1.712930
Nb	0.000000	0.000000	0.000000
O	1.712930	1.712930	0.000000
O	1.712930	0.000000	1.712930
O	0.000000	1.712930	1.712930
B	1.712930	1.712930	5.138791
Nb	0.000000	0.000000	3.425861
O	1.712930	1.712930	3.425861
O	1.712930	0.000000	5.138791
O	0.000000	1.712930	5.138791
B	1.712930	5.138791	1.712930
Nb	0.000000	3.425861	0.000000
O	1.712930	5.138791	0.000000
O	1.712930	3.425861	1.712930
O	0.000000	5.138791	1.712930
B	1.712930	5.138791	5.138791
Nb	0.000000	3.425861	3.425861
O	1.712930	5.138791	3.425861
O	1.712930	3.425861	5.138791
O	0.000000	5.138791	5.138791
B	5.138791	1.712930	1.712930
Nb	3.425861	0.000000	0.000000
O	5.138791	1.712930	0.000000
O	5.138791	0.000000	1.712930
O	3.425861	1.712930	1.712930
B	5.138791	1.712930	5.138791
Nb	3.425861	0.000000	3.425861
O	5.138791	1.712930	3.425861
O	5.138791	0.000000	5.138791
O	3.425861	1.712930	5.138791
B	5.138791	5.138791	1.712930
Nb	3.425861	3.425861	0.000000
O	5.138791	5.138791	0.000000
O	5.138791	3.425861	1.712930
O	3.425861	5.138791	1.712930
B	5.138791	5.138791	5.138791
Nb	3.425861	3.425861	3.425861
O	5.138791	5.138791	3.425861
O	5.138791	3.425861	5.138791
O	3.425861	5.138791	5.138791
