112

Cs	0.000000	0.000000	0.000000
Cs	2.400620	-2.400831	-2.400831
O	3.908697	-0.892119	-0.892119
O	-0.892543	0.892119	-3.909543
O	0.892543	-0.892119	-3.909543
O	1.508077	1.508712	-1.508712
O	5.693782	0.892119	-0.892119
O	1.508077	3.292949	-3.292949
O	3.293163	3.292949	-1.508712
O	3.293163	1.508712	-3.292949
Pd	-1.200310	-1.200415	-3.601246
Pd	3.600930	1.200415	-1.200415
Pd	6.001550	-1.200415	-1.200415
Pd	1.200310	1.200415	-3.601246
Cs	4.801240	4.801662	0.000000
Cs	7.201859	2.400831	-2.400831
O	8.709937	3.909543	-0.892119
O	3.908697	5.693780	-3.909543
O	5.693782	3.909543	-3.909543
O	6.309317	6.310374	-1.508712
O	10.495022	5.693780	-0.892119
O	6.309317	8.094611	-3.292949
O	8.094402	8.094611	-1.508712
O	8.094402	6.310374	-3.292949
Pd	3.600930	3.601246	-3.601246
Pd	8.402169	6.002077	-1.200415
Pd	10.802789	3.601246	-1.200415
Pd	6.001550	6.002077	-3.601246
Cs	-4.801240	0.000000	-4.801662
Cs	-2.400620	-2.400831	-7.202493
O	-0.892543	-0.892119	-5.693780
O	-5.693782	0.892119	-8.711205
O	-3.908697	-0.892119	-8.711205
O	-3.293163	1.508712	-6.310374
O	0.892543	0.892119	-5.693780
O	-3.293163	3.292949	-8.094611
O	-1.508077	3.292949	-6.310374
O	-1.508077	1.508712	-8.094611
Pd	-6.001550	-1.200415	-8.402908
Pd	-1.200310	1.200415	-6.002077
Pd	1.200310	-1.200415	-6.002077
Pd	-3.600930	1.200415	-8.402908
Cs	0.000000	4.801662	-4.801662
Cs	2.400620	2.400831	-7.202493
O	3.908697	3.909543	-5.693780
O	-0.892543	5.693780	-8.711205
O	0.892543	3.909543	-8.711205
O	1.508077	6.310374	-6.310374
O	5.693782	5.693780	-5.693780
O	1.508077	8.094611	-8.094611
O	3.293163	8.094611	-6.310374
O	3.293163	6.310374	-8.094611
Pd	-1.200310	3.601246	-8.402908
Pd	3.600930	6.002077	-6.002077
Pd	6.001550	3.601246	-6.002077
Pd	1.200310	6.002077	-8.402908
Cs	4.801240	-4.801662	0.000000
Cs	7.201859	-7.202493	-2.400831
O	8.709937	-5.693780	-0.892119
O	3.908697	-3.909543	-3.909543
O	5.693782	-5.693780	-3.909543
O	6.309317	-3.292949	-1.508712
O	10.495022	-3.909543	-0.892119
O	6.309317	-1.508712	-3.292949
O	8.094402	-1.508712	-1.508712
O	8.094402	-3.292949	-3.292949
Pd	3.600930	-6.002077	-3.601246
Pd	8.402169	-3.601246	-1.200415
Pd	10.802789	-6.002077	-1.200415
Pd	6.001550	-3.601246	-3.601246
Cs	9.602479	0.000000	0.000000
Cs	12.003099	-2.400831	-2.400831
O	13.511176	-0.892119	-0.892119
O	8.709937	0.892119	-3.909543
O	10.495022	-0.892119	-3.909543
O	11.110556	1.508712	-1.508712
O	15.296262	0.892119	-0.892119
O	11.110556	3.292949	-3.292949
O	12.895642	3.292949	-1.508712
O	12.895642	1.508712	-3.292949
Pd	8.402169	-1.200415	-3.601246
Pd	13.203409	1.200415	-1.200415
Pd	15.604029	-1.200415	-1.200415
Pd	10.802789	1.200415	-3.601246
Cs	0.000000	-4.801662	-4.801662
Cs	2.400620	-7.202493	-7.202493
O	3.908697	-5.693780	-5.693780
O	-0.892543	-3.909543	-8.711205
O	0.892543	-5.693780	-8.711205
O	1.508077	-3.292949	-6.310374
O	5.693782	-3.909543	-5.693780
O	1.508077	-1.508712	-8.094611
O	3.293163	-1.508712	-6.310374
O	3.293163	-3.292949	-8.094611
Pd	-1.200310	-6.002077	-8.402908
Pd	3.600930	-3.601246	-6.002077
Pd	6.001550	-6.002077	-6.002077
Pd	1.200310	-3.601246	-8.402908
Cs	4.801240	0.000000	-4.801662
Cs	7.201859	-2.400831	-7.202493
O	8.709937	-0.892119	-5.693780
O	3.908697	0.892119	-8.711205
O	5.693782	-0.892119	-8.711205
O	6.309317	1.508712	-6.310374
O	10.495022	0.892119	-5.693780
O	6.309317	3.292949	-8.094611
O	8.094402	3.292949	-6.310374
O	8.094402	1.508712	-8.094611
Pd	3.600930	-1.200415	-8.402908
Pd	8.402169	1.200415	-6.002077
Pd	10.802789	-1.200415	-6.002077
Pd	6.001550	1.200415	-8.402908
