40

As	0.000000	0.000000	0.000000
B	1.688600	1.688600	1.688600
O	1.688600	0.000000	1.688600
O	0.000000	1.688600	1.688600
O	1.688600	1.688600	0.000000
As	0.000000	0.000000	3.377207
B	1.688600	1.688600	5.065807
O	1.688600	0.000000	5.065807
O	0.000000	1.688600	5.065807
O	1.688600	1.688600	3.377207
As	0.000000	3.377207	0.000000
B	1.688600	5.065807	1.688600
O	1.688600	3.377207	1.688600
O	0.000000	5.065807	1.688600
O	1.688600	5.065807	0.000000
As	0.000000	3.377207	3.377207
B	1.688600	5.065807	5.065807
O	1.688600	3.377207	5.065807
O	0.000000	5.065807	5.065807
O	1.688600	5.065807	3.377207
As	3.377207	0.000000	0.000000
B	5.065807	1.688600	1.688600
O	5.065807	0.000000	1.688600
O	3.377207	1.688600	1.688600
O	5.065807	1.688600	0.000000
As	3.377207	0.000000	3.377207
B	5.065807	1.688600	5.065807
O	5.065807	0.000000	5.065807
O	3.377207	1.688600	5.065807
O	5.065807	1.688600	3.377207
As	3.377207	3.377207	0.000000
B	5.065807	5.065807	1.688600
O	5.065807	3.377207	1.688600
O	3.377207	5.065807	1.688600
O	5.065807	5.065807	0.000000
As	3.377207	3.377207	3.377207
B	5.065807	5.065807	5.065807
O	5.065807	3.377207	5.065807
O	3.377207	5.065807	5.065807
O	5.065807	5.065807	3.377207
