288

F	-4.283957	1.117058	-1.434186
F	-1.434186	0.590999	-1.117058
F	-1.117058	-1.434186	0.590999
F	-6.309143	-0.590999	-1.117058
F	-3.757898	-1.434186	-0.590999
F	0.590999	-1.117058	-1.434186
F	-4.283957	-3.757898	1.434186
F	-3.757898	1.434186	-4.283957
F	-1.434186	-4.283957	1.117058
F	-5.992015	-3.440770	-0.590999
F	-1.434186	-0.590999	-3.757898
F	-4.283957	-1.117059	-3.440770
F	-0.590999	-3.757898	-1.434186
F	-3.440770	-4.283957	-1.117059
F	1.117058	-1.434186	-4.283957
F	-3.440770	-0.590999	-5.992015
F	-1.117058	-6.309143	-0.590999
F	-0.590999	-1.117058	-6.309143
F	-5.465956	-3.757898	-3.440770
F	-1.117059	-3.440770	-4.283957
F	1.434186	-4.283957	-3.757898
F	-3.757898	-3.440770	-5.465956
F	-3.440770	-5.465956	-3.757898
F	-0.590999	-5.992015	-3.440770
O	-2.773382	-2.101575	2.101575
O	-6.976531	2.101575	-2.101575
O	-2.101575	2.101575	-2.773382
O	-2.101575	-2.101575	-2.101575
O	2.101575	-2.773382	-2.101575
O	-2.101575	-6.976531	2.101575
O	-2.773382	-2.773382	-2.773382
O	2.101575	-2.101575	-6.976531
Sb	0.000000	0.000000	0.000000
Sb	-4.874956	0.000000	0.000000
Sb	0.000000	-4.874956	0.000000
Sb	0.000000	0.000000	-4.874956
F	0.590999	-3.757898	-6.309143
F	3.440770	-4.283957	-5.992015
F	3.757898	-6.309143	-4.283957
F	-1.434186	-5.465956	-5.992015
F	1.117059	-6.309143	-5.465956
F	5.465956	-5.992015	-6.309143
F	0.590999	-8.632854	-3.440770
F	1.117058	-3.440770	-9.158913
F	3.440770	-9.158913	-3.757898
F	-1.117058	-8.315727	-5.465956
F	3.440770	-5.465956	-8.632854
F	0.590999	-5.992015	-8.315727
F	4.283957	-8.632854	-6.309143
F	1.434186	-9.158913	-5.992015
F	5.992015	-6.309143	-9.158913
F	1.434186	-5.465956	-10.866971
F	3.757898	-11.184099	-5.465956
F	4.283957	-5.992015	-11.184099
F	-0.590999	-8.632854	-8.315727
F	3.757898	-8.315727	-9.158913
F	6.309143	-9.158913	-8.632854
F	1.117058	-8.315727	-10.340912
F	1.434186	-10.340912	-8.632854
F	4.283957	-10.866971	-8.315727
O	2.101575	-6.976531	-2.773382
O	-2.101575	-2.773382	-6.976531
O	2.773382	-2.773382	-7.648338
O	2.773382	-6.976531	-6.976531
O	6.976531	-7.648338	-6.976531
O	2.773382	-11.851487	-2.773382
O	2.101575	-7.648338	-7.648338
O	6.976531	-6.976531	-11.851487
Sb	4.874956	-4.874956	-4.874956
Sb	0.000000	-4.874956	-4.874956
Sb	4.874956	-9.749913	-4.874956
Sb	4.874956	-4.874956	-9.749913
F	-9.158913	5.992015	-6.309143
F	-6.309143	5.465956	-5.992015
F	-5.992015	3.440770	-4.283957
F	-11.184099	4.283957	-5.992015
F	-8.632854	3.440770	-5.465956
F	-4.283957	3.757898	-6.309143
F	-9.158913	1.117058	-3.440770
F	-8.632854	6.309143	-9.158913
F	-6.309143	0.590999	-3.757898
F	-10.866971	1.434186	-5.465956
F	-6.309143	4.283957	-8.632854
F	-9.158913	3.757898	-8.315727
F	-5.465956	1.117059	-6.309143
F	-8.315727	0.590999	-5.992015
F	-3.757898	3.440770	-9.158913
F	-8.315727	4.283957	-10.866971
F	-5.992015	-1.434186	-5.465956
F	-5.465956	3.757898	-11.184099
F	-10.340912	1.117058	-8.315727
F	-5.992015	1.434186	-9.158913
F	-3.440770	0.590999	-8.632854
F	-8.632854	1.434186	-10.340912
F	-8.315727	-0.590999	-8.632854
F	-5.465956	-1.117058	-8.315727
O	-7.648338	2.773382	-2.773382
O	-11.851487	6.976531	-6.976531
O	-6.976531	6.976531	-7.648338
O	-6.976531	2.773382	-6.976531
O	-2.773382	2.101575	-6.976531
O	-6.976531	-2.101575	-2.773382
O	-7.648338	2.101575	-7.648338
O	-2.773382	2.773382	-11.851487
Sb	-4.874956	4.874956	-4.874956
Sb	-9.749913	4.874956	-4.874956
Sb	-4.874956	0.000000	-4.874956
Sb	-4.874956	4.874956	-9.749913
F	-4.283957	1.117058	-11.184099
F	-1.434186	0.590999	-10.866971
F	-1.117058	-1.434186	-9.158913
F	-6.309143	-0.590999	-10.866971
F	-3.757898	-1.434186	-10.340912
F	0.590999	-1.117058	-11.184099
F	-4.283957	-3.757898	-8.315727
F	-3.757898	1.434186	-14.033870
F	-1.434186	-4.283957	-8.632854
F	-5.992015	-3.440770	-10.340912
F	-1.434186	-0.590999	-13.507811
F	-4.283957	-1.117059	-13.190683
F	-0.590999	-3.757898	-11.184099
F	-3.440770	-4.283957	-10.866971
F	1.117058	-1.434186	-14.033870
F	-3.440770	-0.590999	-15.741928
F	-1.117058	-6.309143	-10.340912
F	-0.590999	-1.117058	-16.059055
F	-5.465956	-3.757898	-13.190683
F	-1.117059	-3.440770	-14.033870
F	1.434186	-4.283957	-13.507811
F	-3.757898	-3.440770	-15.215869
F	-3.440770	-5.465956	-13.507811
F	-0.590999	-5.992015	-13.190683
O	-2.773382	-2.101575	-7.648338
O	-6.976531	2.101575	-11.851487
O	-2.101575	2.101575	-12.523295
O	-2.101575	-2.101575	-11.851487
O	2.101575	-2.773382	-11.851487
O	-2.101575	-6.976531	-7.648338
O	-2.773382	-2.773382	-12.523295
O	2.101575	-2.101575	-16.726444
Sb	0.000000	0.000000	-9.749913
Sb	-4.874956	0.000000	-9.749913
Sb	0.000000	-4.874956	-9.749913
Sb	0.000000	0.000000	-14.624869
F	-9.158913	-3.757898	3.440770
F	-6.309143	-4.283957	3.757898
F	-5.992015	-6.309143	5.465956
F	-11.184099	-5.465956	3.757898
F	-8.632854	-6.309143	4.283957
F	-4.283957	-5.992015	3.440770
F	-9.158913	-8.632854	6.309143
F	-8.632854	-3.440770	0.590999
F	-6.309143	-9.158913	5.992015
F	-10.866971	-8.315727	4.283957
F	-6.309143	-5.465956	1.117059
F	-9.158913	-5.992015	1.434186
F	-5.465956	-8.632854	3.440770
F	-8.315727	-9.158913	3.757898
F	-3.757898	-6.309143	0.590999
F	-8.315727	-5.465956	-1.117058
F	-5.992015	-11.184099	4.283957
F	-5.465956	-5.992015	-1.434186
F	-10.340912	-8.632854	1.434186
F	-5.992015	-8.315727	0.590999
F	-3.440770	-9.158913	1.117058
F	-8.632854	-8.315727	-0.590999
F	-8.315727	-10.340912	1.117058
F	-5.465956	-10.866971	1.434186
O	-7.648338	-6.976531	6.976531
O	-11.851487	-2.773382	2.773382
O	-6.976531	-2.773382	2.101575
O	-6.976531	-6.976531	2.773382
O	-2.773382	-7.648338	2.773382
O	-6.976531	-11.851487	6.976531
O	-7.648338	-7.648338	2.101575
O	-2.773382	-6.976531	-2.101575
Sb	-4.874956	-4.874956	4.874956
Sb	-9.749913	-4.874956	4.874956
Sb	-4.874956	-9.749913	4.874956
Sb	-4.874956	-4.874956	0.000000
F	-4.283957	-8.632854	-1.434186
F	-1.434186	-9.158913	-1.117058
F	-1.117058	-11.184099	0.590999
F	-6.309143	-10.340912	-1.117058
F	-3.757898	-11.184099	-0.590999
F	0.590999	-10.866971	-1.434186
F	-4.283957	-13.507811	1.434186
F	-3.757898	-8.315727	-4.283957
F	-1.434186	-14.033870	1.117058
F	-5.992015	-13.190683	-0.590999
F	-1.434186	-10.340912	-3.757898
F	-4.283957	-10.866971	-3.440770
F	-0.590999	-13.507811	-1.434186
F	-3.440770	-14.033870	-1.117059
F	1.117058	-11.184099	-4.283957
F	-3.440770	-10.340912	-5.992015
F	-1.117058	-16.059055	-0.590999
F	-0.590999	-10.866971	-6.309143
F	-5.465956	-13.507811	-3.440770
F	-1.117059	-13.190683	-4.283957
F	1.434186	-14.033870	-3.757898
F	-3.757898	-13.190683	-5.465956
F	-3.440770	-15.215869	-3.757898
F	-0.590999	-15.741928	-3.440770
O	-2.773382	-11.851487	2.101575
O	-6.976531	-7.648338	-2.101575
O	-2.101575	-7.648338	-2.773382
O	-2.101575	-11.851487	-2.101575
O	2.101575	-12.523295	-2.101575
O	-2.101575	-16.726444	2.101575
O	-2.773382	-12.523295	-2.773382
O	2.101575	-11.851487	-6.976531
Sb	0.000000	-9.749913	0.000000
Sb	-4.874956	-9.749913	0.000000
Sb	0.000000	-14.624869	0.000000
Sb	0.000000	-9.749913	-4.874956
F	-14.033870	1.117058	-1.434186
F	-11.184099	0.590999	-1.117058
F	-10.866971	-1.434186	0.590999
F	-16.059055	-0.590999	-1.117058
F	-13.507811	-1.434186	-0.590999
F	-9.158913	-1.117058	-1.434186
F	-14.033870	-3.757898	1.434186
F	-13.507811	1.434186	-4.283957
F	-11.184099	-4.283957	1.117058
F	-15.741928	-3.440770	-0.590999
F	-11.184099	-0.590999	-3.757898
F	-14.033870	-1.117059	-3.440770
F	-10.340912	-3.757898	-1.434186
F	-13.190683	-4.283957	-1.117059
F	-8.632854	-1.434186	-4.283957
F	-13.190683	-0.590999	-5.992015
F	-10.866971	-6.309143	-0.590999
F	-10.340912	-1.117058	-6.309143
F	-15.215869	-3.757898	-3.440770
F	-10.866971	-3.440770	-4.283957
F	-8.315727	-4.283957	-3.757898
F	-13.507811	-3.440770	-5.465956
F	-13.190683	-5.465956	-3.757898
F	-10.340912	-5.992015	-3.440770
O	-12.523295	-2.101575	2.101575
O	-16.726444	2.101575	-2.101575
O	-11.851487	2.101575	-2.773382
O	-11.851487	-2.101575	-2.101575
O	-7.648338	-2.773382	-2.101575
O	-11.851487	-6.976531	2.101575
O	-12.523295	-2.773382	-2.773382
O	-7.648338	-2.101575	-6.976531
Sb	-9.749913	0.000000	0.000000
Sb	-14.624869	0.000000	0.000000
Sb	-9.749913	-4.874956	0.000000
Sb	-9.749913	0.000000	-4.874956
F	-9.158913	-3.757898	-6.309143
F	-6.309143	-4.283957	-5.992015
F	-5.992015	-6.309143	-4.283957
F	-11.184099	-5.465956	-5.992015
F	-8.632854	-6.309143	-5.465956
F	-4.283957	-5.992015	-6.309143
F	-9.158913	-8.632854	-3.440770
F	-8.632854	-3.440770	-9.158913
F	-6.309143	-9.158913	-3.757898
F	-10.866971	-8.315727	-5.465956
F	-6.309143	-5.465956	-8.632854
F	-9.158913	-5.992015	-8.315727
F	-5.465956	-8.632854	-6.309143
F	-8.315727	-9.158913	-5.992015
F	-3.757898	-6.309143	-9.158913
F	-8.315727	-5.465956	-10.866971
F	-5.992015	-11.184099	-5.465956
F	-5.465956	-5.992015	-11.184099
F	-10.340912	-8.632854	-8.315727
F	-5.992015	-8.315727	-9.158913
F	-3.440770	-9.158913	-8.632854
F	-8.632854	-8.315727	-10.340912
F	-8.315727	-10.340912	-8.632854
F	-5.465956	-10.866971	-8.315727
O	-7.648338	-6.976531	-2.773382
O	-11.851487	-2.773382	-6.976531
O	-6.976531	-2.773382	-7.648338
O	-6.976531	-6.976531	-6.976531
O	-2.773382	-7.648338	-6.976531
O	-6.976531	-11.851487	-2.773382
O	-7.648338	-7.648338	-7.648338
O	-2.773382	-6.976531	-11.851487
Sb	-4.874956	-4.874956	-4.874956
Sb	-9.749913	-4.874956	-4.874956
Sb	-4.874956	-9.749913	-4.874956
Sb	-4.874956	-4.874956	-9.749913
