40

As	0.000000	0.000000	0.000000
Be	1.758749	1.758749	1.758749
O	0.000000	1.758749	1.758749
O	1.758749	0.000000	1.758749
O	1.758749	1.758749	0.000000
As	0.000000	0.000000	3.517497
Be	1.758749	1.758749	5.276246
O	0.000000	1.758749	5.276246
O	1.758749	0.000000	5.276246
O	1.758749	1.758749	3.517497
As	0.000000	3.517497	0.000000
Be	1.758749	5.276246	1.758749
O	0.000000	5.276246	1.758749
O	1.758749	3.517497	1.758749
O	1.758749	5.276246	0.000000
As	0.000000	3.517497	3.517497
Be	1.758749	5.276246	5.276246
O	0.000000	5.276246	5.276246
O	1.758749	3.517497	5.276246
O	1.758749	5.276246	3.517497
As	3.517497	0.000000	0.000000
Be	5.276246	1.758749	1.758749
O	3.517497	1.758749	1.758749
O	5.276246	0.000000	1.758749
O	5.276246	1.758749	0.000000
As	3.517497	0.000000	3.517497
Be	5.276246	1.758749	5.276246
O	3.517497	1.758749	5.276246
O	5.276246	0.000000	5.276246
O	5.276246	1.758749	3.517497
As	3.517497	3.517497	0.000000
Be	5.276246	5.276246	1.758749
O	3.517497	5.276246	1.758749
O	5.276246	3.517497	1.758749
O	5.276246	5.276246	0.000000
As	3.517497	3.517497	3.517497
Be	5.276246	5.276246	5.276246
O	3.517497	5.276246	5.276246
O	5.276246	3.517497	5.276246
O	5.276246	5.276246	3.517497
