40

Ir	1.964985	1.964985	1.964985
O	0.000000	1.964985	1.964985
O	1.964985	0.000000	1.964985
O	1.964985	1.964985	0.000000
Ti	0.000000	0.000000	0.000000
Ir	1.964985	1.964985	5.894955
O	0.000000	1.964985	5.894955
O	1.964985	0.000000	5.894955
O	1.964985	1.964985	3.929970
Ti	0.000000	0.000000	3.929970
Ir	1.964985	5.894955	1.964985
O	0.000000	5.894955	1.964985
O	1.964985	3.929970	1.964985
O	1.964985	5.894955	0.000000
Ti	0.000000	3.929970	0.000000
Ir	1.964985	5.894955	5.894955
O	0.000000	5.894955	5.894955
O	1.964985	3.929970	5.894955
O	1.964985	5.894955	3.929970
Ti	0.000000	3.929970	3.929970
Ir	5.894955	1.964985	1.964985
O	3.929970	1.964985	1.964985
O	5.894955	0.000000	1.964985
O	5.894955	1.964985	0.000000
Ti	3.929970	0.000000	0.000000
Ir	5.894955	1.964985	5.894955
O	3.929970	1.964985	5.894955
O	5.894955	0.000000	5.894955
O	5.894955	1.964985	3.929970
Ti	3.929970	0.000000	3.929970
Ir	5.894955	5.894955	1.964985
O	3.929970	5.894955	1.964985
O	5.894955	3.929970	1.964985
O	5.894955	5.894955	0.000000
Ti	3.929970	3.929970	0.000000
Ir	5.894955	5.894955	5.894955
O	3.929970	5.894955	5.894955
O	5.894955	3.929970	5.894955
O	5.894955	5.894955	3.929970
Ti	3.929970	3.929970	3.929970
