40

O	2.293581	2.293581	0.000000
O	2.293581	0.000000	2.293581
O	0.000000	2.293581	2.293581
Rb	2.293581	2.293581	2.293581
Sc	0.000000	0.000000	0.000000
O	2.293581	2.293581	4.587162
O	2.293581	0.000000	6.880743
O	0.000000	2.293581	6.880743
Rb	2.293581	2.293581	6.880743
Sc	0.000000	0.000000	4.587162
O	2.293581	6.880743	0.000000
O	2.293581	4.587162	2.293581
O	0.000000	6.880743	2.293581
Rb	2.293581	6.880743	2.293581
Sc	0.000000	4.587162	0.000000
O	2.293581	6.880743	4.587162
O	2.293581	4.587162	6.880743
O	0.000000	6.880743	6.880743
Rb	2.293581	6.880743	6.880743
Sc	0.000000	4.587162	4.587162
O	6.880743	2.293581	0.000000
O	6.880743	0.000000	2.293581
O	4.587162	2.293581	2.293581
Rb	6.880743	2.293581	2.293581
Sc	4.587162	0.000000	0.000000
O	6.880743	2.293581	4.587162
O	6.880743	0.000000	6.880743
O	4.587162	2.293581	6.880743
Rb	6.880743	2.293581	6.880743
Sc	4.587162	0.000000	4.587162
O	6.880743	6.880743	0.000000
O	6.880743	4.587162	2.293581
O	4.587162	6.880743	2.293581
Rb	6.880743	6.880743	2.293581
Sc	4.587162	4.587162	0.000000
O	6.880743	6.880743	4.587162
O	6.880743	4.587162	6.880743
O	4.587162	6.880743	6.880743
Rb	6.880743	6.880743	6.880743
Sc	4.587162	4.587162	4.587162
