112

O	3.280548	-1.049644	-1.049644
O	-1.049690	1.049644	-3.283355
O	1.049690	-1.049644	-3.283355
O	1.115429	1.116855	-1.116855
O	5.379927	1.049644	-1.049644
O	1.115429	3.216144	-3.216144
O	3.214808	3.216144	-1.116855
O	3.214808	1.116855	-3.216144
Re	0.000000	0.000000	0.000000
Re	2.165119	-2.166500	-2.166500
Tc	-1.082559	-1.083250	-3.249749
Tc	3.247678	1.083250	-1.083250
Tc	5.412797	-1.083250	-1.083250
Tc	1.082559	1.083250	-3.249749
O	7.610785	3.283355	-1.049644
O	3.280548	5.382644	-3.283355
O	5.379927	3.283355	-3.283355
O	5.445666	5.449854	-1.116855
O	9.710164	5.382644	-1.049644
O	5.445666	7.549143	-3.216144
O	7.545046	7.549143	-1.116855
O	7.545046	5.449854	-3.216144
Re	4.330237	4.332999	0.000000
Re	6.495356	2.166500	-2.166500
Tc	3.247678	3.249749	-3.249749
Tc	7.577915	5.416249	-1.083250
Tc	9.743034	3.249749	-1.083250
Tc	5.412797	5.416249	-3.249749
O	-1.049690	-1.049644	-5.382644
O	-5.379927	1.049644	-7.616354
O	-3.280548	-1.049644	-7.616354
O	-3.214808	1.116855	-5.449854
O	1.049690	1.049644	-5.382644
O	-3.214808	3.216144	-7.549143
O	-1.115429	3.216144	-5.449854
O	-1.115429	1.116855	-7.549143
Re	-4.330237	0.000000	-4.332999
Re	-2.165119	-2.166500	-6.499499
Tc	-5.412797	-1.083250	-7.582748
Tc	-1.082559	1.083250	-5.416249
Tc	1.082559	-1.083250	-5.416249
Tc	-3.247678	1.083250	-7.582748
O	3.280548	3.283355	-5.382644
O	-1.049690	5.382644	-7.616354
O	1.049690	3.283355	-7.616354
O	1.115429	5.449854	-5.449854
O	5.379927	5.382644	-5.382644
O	1.115429	7.549143	-7.549143
O	3.214808	7.549143	-5.449854
O	3.214808	5.449854	-7.549143
Re	0.000000	4.332999	-4.332999
Re	2.165119	2.166500	-6.499499
Tc	-1.082559	3.249749	-7.582748
Tc	3.247678	5.416249	-5.416249
Tc	5.412797	3.249749	-5.416249
Tc	1.082559	5.416249	-7.582748
O	7.610785	-5.382643	-1.049644
O	3.280548	-3.283355	-3.283355
O	5.379927	-5.382643	-3.283355
O	5.445666	-3.216144	-1.116855
O	9.710164	-3.283355	-1.049644
O	5.445666	-1.116855	-3.216144
O	7.545046	-1.116855	-1.116855
O	7.545046	-3.216144	-3.216144
Re	4.330237	-4.332999	0.000000
Re	6.495356	-6.499499	-2.166500
Tc	3.247678	-5.416249	-3.249749
Tc	7.577915	-3.249749	-1.083250
Tc	9.743034	-5.416249	-1.083250
Tc	5.412797	-3.249749	-3.249749
O	11.941022	-1.049644	-1.049644
O	7.610785	1.049644	-3.283355
O	9.710164	-1.049644	-3.283355
O	9.775904	1.116855	-1.116855
O	14.040402	1.049644	-1.049644
O	9.775904	3.216144	-3.216144
O	11.875283	3.216144	-1.116855
O	11.875283	1.116855	-3.216144
Re	8.660475	0.000000	0.000000
Re	10.825593	-2.166500	-2.166500
Tc	7.577915	-1.083250	-3.249749
Tc	11.908153	1.083250	-1.083250
Tc	14.073271	-1.083250	-1.083250
Tc	9.743034	1.083250	-3.249749
O	3.280548	-5.382643	-5.382644
O	-1.049690	-3.283355	-7.616354
O	1.049690	-5.382643	-7.616354
O	1.115429	-3.216144	-5.449854
O	5.379927	-3.283355	-5.382644
O	1.115429	-1.116855	-7.549143
O	3.214808	-1.116855	-5.449854
O	3.214808	-3.216144	-7.549143
Re	0.000000	-4.332999	-4.332999
Re	2.165119	-6.499499	-6.499499
Tc	-1.082559	-5.416249	-7.582748
Tc	3.247678	-3.249749	-5.416249
Tc	5.412797	-5.416249	-5.416249
Tc	1.082559	-3.249749	-7.582748
O	7.610785	-1.049644	-5.382644
O	3.280548	1.049644	-7.616354
O	5.379927	-1.049644	-7.616354
O	5.445666	1.116855	-5.449854
O	9.710164	1.049644	-5.382644
O	5.445666	3.216144	-7.549143
O	7.545046	3.216144	-5.449854
O	7.545046	1.116855	-7.549143
Re	4.330237	0.000000	-4.332999
Re	6.495356	-2.166500	-6.499499
Tc	3.247678	-1.083250	-7.582748
Tc	7.577915	1.083250	-5.416249
Tc	9.743034	-1.083250	-5.416249
Tc	5.412797	1.083250	-7.582748
