40

Li	0.000000	0.000000	0.000000
O	2.197625	2.197625	0.000000
O	2.197625	0.000000	2.197625
O	0.000000	2.197625	2.197625
Rb	2.197625	2.197625	2.197625
Li	0.000000	0.000000	4.395247
O	2.197625	2.197625	4.395247
O	2.197625	0.000000	6.592871
O	0.000000	2.197625	6.592871
Rb	2.197625	2.197625	6.592871
Li	0.000000	4.395247	0.000000
O	2.197625	6.592871	0.000000
O	2.197625	4.395247	2.197625
O	0.000000	6.592871	2.197625
Rb	2.197625	6.592871	2.197625
Li	0.000000	4.395247	4.395247
O	2.197625	6.592871	4.395247
O	2.197625	4.395247	6.592871
O	0.000000	6.592871	6.592871
Rb	2.197625	6.592871	6.592871
Li	4.395247	0.000000	0.000000
O	6.592871	2.197625	0.000000
O	6.592871	0.000000	2.197625
O	4.395247	2.197625	2.197625
Rb	6.592871	2.197625	2.197625
Li	4.395247	0.000000	4.395247
O	6.592871	2.197625	4.395247
O	6.592871	0.000000	6.592871
O	4.395247	2.197625	6.592871
Rb	6.592871	2.197625	6.592871
Li	4.395247	4.395247	0.000000
O	6.592871	6.592871	0.000000
O	6.592871	4.395247	2.197625
O	4.395247	6.592871	2.197625
Rb	6.592871	6.592871	2.197625
Li	4.395247	4.395247	4.395247
O	6.592871	6.592871	4.395247
O	6.592871	4.395247	6.592871
O	4.395247	6.592871	6.592871
Rb	6.592871	6.592871	6.592871
