40

Li	1.982328	1.982328	1.982328
O	1.982328	1.982328	0.000000
O	1.982328	0.000000	1.982328
O	0.000000	1.982328	1.982328
Rb	0.000000	0.000000	0.000000
Li	1.982328	1.982328	5.946983
O	1.982328	1.982328	3.964655
O	1.982328	0.000000	5.946983
O	0.000000	1.982328	5.946983
Rb	0.000000	0.000000	3.964655
Li	1.982328	5.946983	1.982328
O	1.982328	5.946983	0.000000
O	1.982328	3.964655	1.982328
O	0.000000	5.946983	1.982328
Rb	0.000000	3.964655	0.000000
Li	1.982328	5.946983	5.946983
O	1.982328	5.946983	3.964655
O	1.982328	3.964655	5.946983
O	0.000000	5.946983	5.946983
Rb	0.000000	3.964655	3.964655
Li	5.946983	1.982328	1.982328
O	5.946983	1.982328	0.000000
O	5.946983	0.000000	1.982328
O	3.964655	1.982328	1.982328
Rb	3.964655	0.000000	0.000000
Li	5.946983	1.982328	5.946983
O	5.946983	1.982328	3.964655
O	5.946983	0.000000	5.946983
O	3.964655	1.982328	5.946983
Rb	3.964655	0.000000	3.964655
Li	5.946983	5.946983	1.982328
O	5.946983	5.946983	0.000000
O	5.946983	3.964655	1.982328
O	3.964655	5.946983	1.982328
Rb	3.964655	3.964655	0.000000
Li	5.946983	5.946983	5.946983
O	5.946983	5.946983	3.964655
O	5.946983	3.964655	5.946983
O	3.964655	5.946983	5.946983
Rb	3.964655	3.964655	3.964655
