40

Ba	2.073488	2.073488	2.073488
O	2.073488	0.000000	0.000000
O	0.000000	2.073488	0.000000
O	0.000000	0.000000	2.073488
Sn	-0.015000	0.000000	0.000000
Ba	2.073488	2.073488	6.220465
O	2.073488	0.000000	4.146977
O	0.000000	2.073488	4.146977
O	0.000000	0.000000	6.220465
Sn	-0.015000	0.000000	4.146977
Ba	2.073488	6.220465	2.073488
O	2.073488	4.146977	0.000000
O	0.000000	6.220465	0.000000
O	0.000000	4.146977	2.073488
Sn	-0.015000	4.146977	0.000000
Ba	2.073488	6.220465	6.220465
O	2.073488	4.146977	4.146977
O	0.000000	6.220465	4.146977
O	0.000000	4.146977	6.220465
Sn	-0.015000	4.146977	4.146977
Ba	6.220465	2.073488	2.073488
O	6.220465	0.000000	0.000000
O	4.146977	2.073488	0.000000
O	4.146977	0.000000	2.073488
Sn	4.131977	0.000000	0.000000
Ba	6.220465	2.073488	6.220465
O	6.220465	0.000000	4.146977
O	4.146977	2.073488	4.146977
O	4.146977	0.000000	6.220465
Sn	4.131977	0.000000	4.146977
Ba	6.220465	6.220465	2.073488
O	6.220465	4.146977	0.000000
O	4.146977	6.220465	0.000000
O	4.146977	4.146977	2.073488
Sn	4.131977	4.146977	0.000000
Ba	6.220465	6.220465	6.220465
O	6.220465	4.146977	4.146977
O	4.146977	6.220465	4.146977
O	4.146977	4.146977	6.220465
Sn	4.131977	4.146977	4.146977
