40

Ir	1.898959	1.898959	1.898959
N	0.000000	0.000000	0.000000
O	0.000000	1.898959	1.898959
O	1.898959	0.000000	1.898959
O	1.898959	1.898959	0.000000
Ir	1.898959	1.898959	5.696877
N	0.000000	0.000000	3.797918
O	0.000000	1.898959	5.696877
O	1.898959	0.000000	5.696877
O	1.898959	1.898959	3.797918
Ir	1.898959	5.696877	1.898959
N	0.000000	3.797918	0.000000
O	0.000000	5.696877	1.898959
O	1.898959	3.797918	1.898959
O	1.898959	5.696877	0.000000
Ir	1.898959	5.696877	5.696877
N	0.000000	3.797918	3.797918
O	0.000000	5.696877	5.696877
O	1.898959	3.797918	5.696877
O	1.898959	5.696877	3.797918
Ir	5.696877	1.898959	1.898959
N	3.797918	0.000000	0.000000
O	3.797918	1.898959	1.898959
O	5.696877	0.000000	1.898959
O	5.696877	1.898959	0.000000
Ir	5.696877	1.898959	5.696877
N	3.797918	0.000000	3.797918
O	3.797918	1.898959	5.696877
O	5.696877	0.000000	5.696877
O	5.696877	1.898959	3.797918
Ir	5.696877	5.696877	1.898959
N	3.797918	3.797918	0.000000
O	3.797918	5.696877	1.898959
O	5.696877	3.797918	1.898959
O	5.696877	5.696877	0.000000
Ir	5.696877	5.696877	5.696877
N	3.797918	3.797918	3.797918
O	3.797918	5.696877	5.696877
O	5.696877	3.797918	5.696877
O	5.696877	5.696877	3.797918
