40

Al	0.000000	0.000000	0.000000
Ga	1.878898	1.878898	1.878898
O	0.000000	1.878898	1.878898
O	1.878898	0.000000	1.878898
O	1.878898	1.878898	0.000000
Al	0.000000	0.000000	3.757796
Ga	1.878898	1.878898	5.636694
O	0.000000	1.878898	5.636694
O	1.878898	0.000000	5.636694
O	1.878898	1.878898	3.757796
Al	0.000000	3.757796	0.000000
Ga	1.878898	5.636694	1.878898
O	0.000000	5.636694	1.878898
O	1.878898	3.757796	1.878898
O	1.878898	5.636694	0.000000
Al	0.000000	3.757796	3.757796
Ga	1.878898	5.636694	5.636694
O	0.000000	5.636694	5.636694
O	1.878898	3.757796	5.636694
O	1.878898	5.636694	3.757796
Al	3.757796	0.000000	0.000000
Ga	5.636694	1.878898	1.878898
O	3.757796	1.878898	1.878898
O	5.636694	0.000000	1.878898
O	5.636694	1.878898	0.000000
Al	3.757796	0.000000	3.757796
Ga	5.636694	1.878898	5.636694
O	3.757796	1.878898	5.636694
O	5.636694	0.000000	5.636694
O	5.636694	1.878898	3.757796
Al	3.757796	3.757796	0.000000
Ga	5.636694	5.636694	1.878898
O	3.757796	5.636694	1.878898
O	5.636694	3.757796	1.878898
O	5.636694	5.636694	0.000000
Al	3.757796	3.757796	3.757796
Ga	5.636694	5.636694	5.636694
O	3.757796	5.636694	5.636694
O	5.636694	3.757796	5.636694
O	5.636694	5.636694	3.757796
