40

C	0.000000	0.000000	0.000000
O	0.000000	1.944926	1.944926
O	1.944926	0.000000	1.944926
O	1.944926	1.944926	0.000000
W	1.944926	1.944926	1.944926
C	0.000000	0.000000	3.889852
O	0.000000	1.944926	5.834778
O	1.944926	0.000000	5.834778
O	1.944926	1.944926	3.889852
W	1.944926	1.944926	5.834778
C	0.000000	3.889852	0.000000
O	0.000000	5.834778	1.944926
O	1.944926	3.889852	1.944926
O	1.944926	5.834778	0.000000
W	1.944926	5.834778	1.944926
C	0.000000	3.889852	3.889852
O	0.000000	5.834778	5.834778
O	1.944926	3.889852	5.834778
O	1.944926	5.834778	3.889852
W	1.944926	5.834778	5.834778
C	3.889852	0.000000	0.000000
O	3.889852	1.944926	1.944926
O	5.834778	0.000000	1.944926
O	5.834778	1.944926	0.000000
W	5.834778	1.944926	1.944926
C	3.889852	0.000000	3.889852
O	3.889852	1.944926	5.834778
O	5.834778	0.000000	5.834778
O	5.834778	1.944926	3.889852
W	5.834778	1.944926	5.834778
C	3.889852	3.889852	0.000000
O	3.889852	5.834778	1.944926
O	5.834778	3.889852	1.944926
O	5.834778	5.834778	0.000000
W	5.834778	5.834778	1.944926
C	3.889852	3.889852	3.889852
O	3.889852	5.834778	5.834778
O	5.834778	3.889852	5.834778
O	5.834778	5.834778	3.889852
W	5.834778	5.834778	5.834778
