40

Hf	2.044309	2.044309	2.044309
Nb	0.000000	0.000000	0.000000
O	0.000000	2.044309	2.044309
O	2.044309	0.000000	2.044309
O	2.044309	2.044309	0.000000
Hf	2.044309	2.044309	6.132928
Nb	0.000000	0.000000	4.088619
O	0.000000	2.044309	6.132928
O	2.044309	0.000000	6.132928
O	2.044309	2.044309	4.088619
Hf	2.044309	6.132928	2.044309
Nb	0.000000	4.088619	0.000000
O	0.000000	6.132928	2.044309
O	2.044309	4.088619	2.044309
O	2.044309	6.132928	0.000000
Hf	2.044309	6.132928	6.132928
Nb	0.000000	4.088619	4.088619
O	0.000000	6.132928	6.132928
O	2.044309	4.088619	6.132928
O	2.044309	6.132928	4.088619
Hf	6.132928	2.044309	2.044309
Nb	4.088619	0.000000	0.000000
O	4.088619	2.044309	2.044309
O	6.132928	0.000000	2.044309
O	6.132928	2.044309	0.000000
Hf	6.132928	2.044309	6.132928
Nb	4.088619	0.000000	4.088619
O	4.088619	2.044309	6.132928
O	6.132928	0.000000	6.132928
O	6.132928	2.044309	4.088619
Hf	6.132928	6.132928	2.044309
Nb	4.088619	4.088619	0.000000
O	4.088619	6.132928	2.044309
O	6.132928	4.088619	2.044309
O	6.132928	6.132928	0.000000
Hf	6.132928	6.132928	6.132928
Nb	4.088619	4.088619	4.088619
O	4.088619	6.132928	6.132928
O	6.132928	4.088619	6.132928
O	6.132928	6.132928	4.088619
