40

Hf	2.045613	2.045613	2.045613
Nb	0.000000	0.000000	0.000000
O	2.045613	2.045613	0.000000
O	2.045613	0.000000	2.045613
O	0.000000	2.045613	2.045613
Hf	2.045613	2.045613	6.136839
Nb	0.000000	0.000000	4.091226
O	2.045613	2.045613	4.091226
O	2.045613	0.000000	6.136839
O	0.000000	2.045613	6.136839
Hf	2.045613	6.136839	2.045613
Nb	0.000000	4.091226	0.000000
O	2.045613	6.136839	0.000000
O	2.045613	4.091226	2.045613
O	0.000000	6.136839	2.045613
Hf	2.045613	6.136839	6.136839
Nb	0.000000	4.091226	4.091226
O	2.045613	6.136839	4.091226
O	2.045613	4.091226	6.136839
O	0.000000	6.136839	6.136839
Hf	6.136839	2.045613	2.045613
Nb	4.091226	0.000000	0.000000
O	6.136839	2.045613	0.000000
O	6.136839	0.000000	2.045613
O	4.091226	2.045613	2.045613
Hf	6.136839	2.045613	6.136839
Nb	4.091226	0.000000	4.091226
O	6.136839	2.045613	4.091226
O	6.136839	0.000000	6.136839
O	4.091226	2.045613	6.136839
Hf	6.136839	6.136839	2.045613
Nb	4.091226	4.091226	0.000000
O	6.136839	6.136839	0.000000
O	6.136839	4.091226	2.045613
O	4.091226	6.136839	2.045613
Hf	6.136839	6.136839	6.136839
Nb	4.091226	4.091226	4.091226
O	6.136839	6.136839	4.091226
O	6.136839	4.091226	6.136839
O	4.091226	6.136839	6.136839
