40

Ga	0.000000	0.000000	0.000000
O	0.000000	2.070843	2.070843
O	2.070843	0.000000	2.070843
O	2.070843	2.070843	0.000000
Sc	2.070843	2.070843	2.070843
Ga	0.000000	0.000000	4.141686
O	0.000000	2.070843	6.212529
O	2.070843	0.000000	6.212529
O	2.070843	2.070843	4.141686
Sc	2.070843	2.070843	6.212529
Ga	0.000000	4.141686	0.000000
O	0.000000	6.212529	2.070843
O	2.070843	4.141686	2.070843
O	2.070843	6.212529	0.000000
Sc	2.070843	6.212529	2.070843
Ga	0.000000	4.141686	4.141686
O	0.000000	6.212529	6.212529
O	2.070843	4.141686	6.212529
O	2.070843	6.212529	4.141686
Sc	2.070843	6.212529	6.212529
Ga	4.141686	0.000000	0.000000
O	4.141686	2.070843	2.070843
O	6.212529	0.000000	2.070843
O	6.212529	2.070843	0.000000
Sc	6.212529	2.070843	2.070843
Ga	4.141686	0.000000	4.141686
O	4.141686	2.070843	6.212529
O	6.212529	0.000000	6.212529
O	6.212529	2.070843	4.141686
Sc	6.212529	2.070843	6.212529
Ga	4.141686	4.141686	0.000000
O	4.141686	6.212529	2.070843
O	6.212529	4.141686	2.070843
O	6.212529	6.212529	0.000000
Sc	6.212529	6.212529	2.070843
Ga	4.141686	4.141686	4.141686
O	4.141686	6.212529	6.212529
O	6.212529	4.141686	6.212529
O	6.212529	6.212529	4.141686
Sc	6.212529	6.212529	6.212529
