96

O	4.845787	1.977450	0.890886
O	0.890886	4.845787	1.977450
O	3.759223	3.759223	3.759223
O	1.977450	0.890886	4.845787
S	3.830589	4.774421	0.962252
S	1.906084	1.906084	1.906084
S	4.774421	0.962252	3.830589
S	0.962252	3.830589	4.774421
Zr	0.405652	0.405652	0.405652
Zr	5.331021	3.273988	2.462685
Zr	2.462685	5.331021	3.273988
Zr	3.273988	2.462685	5.331021
O	4.845787	1.977450	6.627559
O	0.890886	4.845787	7.714124
O	3.759223	3.759223	9.495896
O	1.977450	0.890886	10.582460
S	3.830589	4.774421	6.698925
S	1.906084	1.906084	7.642758
S	4.774421	0.962252	9.567262
S	0.962252	3.830589	10.511094
Zr	0.405652	0.405652	6.142325
Zr	5.331021	3.273988	8.199358
Zr	2.462685	5.331021	9.010661
Zr	3.273988	2.462685	11.067695
O	4.845787	7.714124	0.890886
O	0.890886	10.582460	1.977450
O	3.759223	9.495896	3.759223
O	1.977450	6.627559	4.845787
S	3.830589	10.511094	0.962252
S	1.906084	7.642758	1.906084
S	4.774421	6.698925	3.830589
S	0.962252	9.567262	4.774421
Zr	0.405652	6.142325	0.405652
Zr	5.331021	9.010661	2.462685
Zr	2.462685	11.067695	3.273988
Zr	3.273988	8.199358	5.331021
O	4.845787	7.714124	6.627559
O	0.890886	10.582460	7.714124
O	3.759223	9.495896	9.495896
O	1.977450	6.627559	10.582460
S	3.830589	10.511094	6.698925
S	1.906084	7.642758	7.642758
S	4.774421	6.698925	9.567262
S	0.962252	9.567262	10.511094
Zr	0.405652	6.142325	6.142325
Zr	5.331021	9.010661	8.199358
Zr	2.462685	11.067695	9.010661
Zr	3.273988	8.199358	11.067695
O	10.582460	1.977450	0.890886
O	6.627559	4.845787	1.977450
O	9.495896	3.759223	3.759223
O	7.714124	0.890886	4.845787
S	9.567262	4.774421	0.962252
S	7.642758	1.906084	1.906084
S	10.511094	0.962252	3.830589
S	6.698925	3.830589	4.774421
Zr	6.142325	0.405652	0.405652
Zr	11.067695	3.273988	2.462685
Zr	8.199358	5.331021	3.273988
Zr	9.010661	2.462685	5.331021
O	10.582460	1.977450	6.627559
O	6.627559	4.845787	7.714124
O	9.495896	3.759223	9.495896
O	7.714124	0.890886	10.582460
S	9.567262	4.774421	6.698925
S	7.642758	1.906084	7.642758
S	10.511094	0.962252	9.567262
S	6.698925	3.830589	10.511094
Zr	6.142325	0.405652	6.142325
Zr	11.067695	3.273988	8.199358
Zr	8.199358	5.331021	9.010661
Zr	9.010661	2.462685	11.067695
O	10.582460	7.714124	0.890886
O	6.627559	10.582460	1.977450
O	9.495896	9.495896	3.759223
O	7.714124	6.627559	4.845787
S	9.567262	10.511094	0.962252
S	7.642758	7.642758	1.906084
S	10.511094	6.698925	3.830589
S	6.698925	9.567262	4.774421
Zr	6.142325	6.142325	0.405652
Zr	11.067695	9.010661	2.462685
Zr	8.199358	11.067695	3.273988
Zr	9.010661	8.199358	5.331021
O	10.582460	7.714124	6.627559
O	6.627559	10.582460	7.714124
O	9.495896	9.495896	9.495896
O	7.714124	6.627559	10.582460
S	9.567262	10.511094	6.698925
S	7.642758	7.642758	7.642758
S	10.511094	6.698925	9.567262
S	6.698925	9.567262	10.511094
Zr	6.142325	6.142325	6.142325
Zr	11.067695	9.010661	8.199358
Zr	8.199358	11.067695	9.010661
Zr	9.010661	8.199358	11.067695
