40

O	0.000000	2.267849	2.267849
O	2.267849	0.000000	2.267849
O	2.267849	2.267849	0.000000
Sr	2.267849	2.267849	2.267849
Te	0.000000	0.000000	0.000000
O	0.000000	2.267849	6.803547
O	2.267849	0.000000	6.803547
O	2.267849	2.267849	4.535698
Sr	2.267849	2.267849	6.803547
Te	0.000000	0.000000	4.535698
O	0.000000	6.803547	2.267849
O	2.267849	4.535698	2.267849
O	2.267849	6.803547	0.000000
Sr	2.267849	6.803547	2.267849
Te	0.000000	4.535698	0.000000
O	0.000000	6.803547	6.803547
O	2.267849	4.535698	6.803547
O	2.267849	6.803547	4.535698
Sr	2.267849	6.803547	6.803547
Te	0.000000	4.535698	4.535698
O	4.535698	2.267849	2.267849
O	6.803547	0.000000	2.267849
O	6.803547	2.267849	0.000000
Sr	6.803547	2.267849	2.267849
Te	4.535698	0.000000	0.000000
O	4.535698	2.267849	6.803547
O	6.803547	0.000000	6.803547
O	6.803547	2.267849	4.535698
Sr	6.803547	2.267849	6.803547
Te	4.535698	0.000000	4.535698
O	4.535698	6.803547	2.267849
O	6.803547	4.535698	2.267849
O	6.803547	6.803547	0.000000
Sr	6.803547	6.803547	2.267849
Te	4.535698	4.535698	0.000000
O	4.535698	6.803547	6.803547
O	6.803547	4.535698	6.803547
O	6.803547	6.803547	4.535698
Sr	6.803547	6.803547	6.803547
Te	4.535698	4.535698	4.535698
