112

Na	0.000000	0.000000	0.000000
Na	2.446595	-2.447432	-2.447432
O	3.835781	-1.057328	-1.057328
O	-1.057409	1.057328	-3.837536
O	1.057409	-1.057328	-3.837536
O	1.389186	1.390104	-1.390104
O	5.950600	1.057328	-1.057328
O	1.389186	3.504760	-3.504760
O	3.504005	3.504760	-1.390104
O	3.504005	1.390104	-3.504760
Tb	-1.223298	-1.223716	-3.671148
Tb	3.669893	1.223716	-1.223716
Tb	6.116488	-1.223716	-1.223716
Tb	1.223298	1.223716	-3.671148
Na	4.893190	4.894864	0.000000
Na	7.339785	2.447432	-2.447432
O	8.728971	3.837536	-1.057328
O	3.835781	5.952192	-3.837536
O	5.950600	3.837536	-3.837536
O	6.282376	6.284968	-1.390104
O	10.843790	5.952192	-1.057328
O	6.282376	8.399624	-3.504760
O	8.397195	8.399624	-1.390104
O	8.397195	6.284968	-3.504760
Tb	3.669893	3.671148	-3.671148
Tb	8.563083	6.118580	-1.223716
Tb	11.009678	3.671148	-1.223716
Tb	6.116488	6.118580	-3.671148
Na	-4.893190	0.000000	-4.894864
Na	-2.446595	-2.447432	-7.342296
O	-1.057409	-1.057328	-5.952192
O	-5.950600	1.057328	-8.732401
O	-3.835781	-1.057328	-8.732401
O	-3.504005	1.390104	-6.284969
O	1.057409	1.057328	-5.952192
O	-3.504005	3.504760	-8.399624
O	-1.389186	3.504760	-6.284969
O	-1.389186	1.390104	-8.399624
Tb	-6.116488	-1.223716	-8.566012
Tb	-1.223298	1.223716	-6.118580
Tb	1.223298	-1.223716	-6.118580
Tb	-3.669893	1.223716	-8.566012
Na	0.000000	4.894864	-4.894864
Na	2.446595	2.447432	-7.342296
O	3.835781	3.837536	-5.952192
O	-1.057409	5.952192	-8.732401
O	1.057409	3.837536	-8.732401
O	1.389186	6.284968	-6.284969
O	5.950600	5.952192	-5.952192
O	1.389186	8.399624	-8.399624
O	3.504005	8.399624	-6.284969
O	3.504005	6.284968	-8.399624
Tb	-1.223298	3.671148	-8.566012
Tb	3.669893	6.118580	-6.118580
Tb	6.116488	3.671148	-6.118580
Tb	1.223298	6.118580	-8.566012
Na	4.893190	-4.894864	0.000000
Na	7.339785	-7.342296	-2.447432
O	8.728971	-5.952192	-1.057328
O	3.835781	-3.837536	-3.837536
O	5.950600	-5.952192	-3.837536
O	6.282376	-3.504760	-1.390104
O	10.843790	-3.837536	-1.057328
O	6.282376	-1.390104	-3.504760
O	8.397195	-1.390104	-1.390104
O	8.397195	-3.504760	-3.504760
Tb	3.669893	-6.118580	-3.671148
Tb	8.563083	-3.671148	-1.223716
Tb	11.009678	-6.118580	-1.223716
Tb	6.116488	-3.671148	-3.671148
Na	9.786381	0.000000	0.000000
Na	12.232976	-2.447432	-2.447432
O	13.622162	-1.057328	-1.057328
O	8.728971	1.057328	-3.837536
O	10.843790	-1.057328	-3.837536
O	11.175566	1.390104	-1.390104
O	15.736980	1.057328	-1.057328
O	11.175566	3.504760	-3.504760
O	13.290385	3.504760	-1.390104
O	13.290385	1.390104	-3.504760
Tb	8.563083	-1.223716	-3.671148
Tb	13.456273	1.223716	-1.223716
Tb	15.902869	-1.223716	-1.223716
Tb	11.009678	1.223716	-3.671148
Na	0.000000	-4.894864	-4.894864
Na	2.446595	-7.342296	-7.342296
O	3.835781	-5.952192	-5.952192
O	-1.057409	-3.837536	-8.732401
O	1.057409	-5.952192	-8.732401
O	1.389186	-3.504760	-6.284969
O	5.950600	-3.837536	-5.952192
O	1.389186	-1.390104	-8.399624
O	3.504005	-1.390104	-6.284969
O	3.504005	-3.504760	-8.399624
Tb	-1.223298	-6.118580	-8.566012
Tb	3.669893	-3.671148	-6.118580
Tb	6.116488	-6.118580	-6.118580
Tb	1.223298	-3.671148	-8.566012
Na	4.893190	0.000000	-4.894864
Na	7.339785	-2.447432	-7.342296
O	8.728971	-1.057328	-5.952192
O	3.835781	1.057328	-8.732401
O	5.950600	-1.057328	-8.732401
O	6.282376	1.390104	-6.284969
O	10.843790	1.057328	-5.952192
O	6.282376	3.504760	-8.399624
O	8.397195	3.504760	-6.284969
O	8.397195	1.390104	-8.399624
Tb	3.669893	-1.223716	-8.566012
Tb	8.563083	1.223716	-6.118580
Tb	11.009678	-1.223716	-6.118580
Tb	6.116488	1.223716	-8.566012
