112

O	5.224236	3.694093	9.048642
O	1.839929	1.301026	5.989769
O	2.649062	3.589599	4.588310
O	4.267327	1.301026	4.588310
O	4.415103	1.405520	7.647183
O	2.796838	3.694093	7.647183
O	1.839929	1.301026	3.186851
O	5.224236	3.694093	6.245724
Zn	6.181144	4.370729	10.706056
Zn	0.883021	0.624390	1.529437
Rh	3.532083	2.497560	3.058873
Rh	3.532083	2.497560	6.117746
Rh	0.883021	2.497560	4.588310
Rh	2.649062	0.000000	4.588310
O	5.224236	3.694093	15.166388
O	1.839929	1.301026	12.107515
O	2.649062	3.589599	10.706056
O	4.267327	1.301026	10.706056
O	4.415103	1.405520	13.764929
O	2.796838	3.694093	13.764929
O	1.839929	1.301026	9.304597
O	5.224236	3.694093	12.363470
Zn	6.181144	4.370729	16.823803
Zn	0.883021	0.624390	7.647183
Rh	3.532083	2.497560	9.176620
Rh	3.532083	2.497560	12.235493
Rh	0.883021	2.497560	10.706056
Rh	2.649062	0.000000	10.706056
O	6.990277	8.689212	12.107515
O	3.605970	6.296145	9.048642
O	4.415103	8.584718	7.647183
O	6.033369	6.296145	7.647183
O	6.181144	6.400639	10.706056
O	4.562879	8.689212	10.706056
O	3.605970	6.296145	6.245724
O	6.990277	8.689212	9.304597
Zn	7.947186	9.365848	13.764929
Zn	2.649062	5.619509	4.588310
Rh	5.298124	7.492679	6.117746
Rh	5.298124	7.492679	9.176620
Rh	2.649062	7.492679	7.647183
Rh	4.415103	4.995119	7.647183
O	6.990277	8.689212	18.225261
O	3.605970	6.296145	15.166388
O	4.415103	8.584718	13.764929
O	6.033369	6.296145	13.764929
O	6.181144	6.400639	16.823803
O	4.562879	8.689212	16.823803
O	3.605970	6.296145	12.363470
O	6.990277	8.689212	15.422344
Zn	7.947186	9.365848	19.882676
Zn	2.649062	5.619509	10.706056
Rh	5.298124	7.492679	12.235493
Rh	5.298124	7.492679	15.294366
Rh	2.649062	7.492679	13.764929
Rh	4.415103	4.995119	13.764929
O	10.522360	3.694093	12.107515
O	7.138053	1.301026	9.048642
O	7.947186	3.589599	7.647183
O	9.565451	1.301026	7.647183
O	9.713227	1.405520	10.706056
O	8.094961	3.694093	10.706056
O	7.138053	1.301026	6.245724
O	10.522360	3.694093	9.304597
Zn	11.479268	4.370729	13.764929
Zn	6.181144	0.624390	4.588310
Rh	8.830206	2.497560	6.117746
Rh	8.830206	2.497560	9.176620
Rh	6.181144	2.497560	7.647183
Rh	7.947186	0.000000	7.647183
O	10.522360	3.694093	18.225261
O	7.138053	1.301026	15.166388
O	7.947186	3.589599	13.764929
O	9.565451	1.301026	13.764929
O	9.713227	1.405520	16.823803
O	8.094961	3.694093	16.823803
O	7.138053	1.301026	12.363470
O	10.522360	3.694093	15.422344
Zn	11.479268	4.370729	19.882676
Zn	6.181144	0.624390	10.706056
Rh	8.830206	2.497560	12.235493
Rh	8.830206	2.497560	15.294366
Rh	6.181144	2.497560	13.764929
Rh	7.947186	0.000000	13.764929
O	12.288401	8.689212	15.166388
O	8.904094	6.296145	12.107515
O	9.713227	8.584718	10.706056
O	11.331492	6.296145	10.706056
O	11.479268	6.400639	13.764929
O	9.861003	8.689212	13.764929
O	8.904094	6.296145	9.304597
O	12.288401	8.689212	12.363470
Zn	13.245309	9.365848	16.823803
Zn	7.947186	5.619509	7.647183
Rh	10.596248	7.492679	9.176620
Rh	10.596248	7.492679	12.235493
Rh	7.947186	7.492679	10.706056
Rh	9.713227	4.995119	10.706056
O	12.288401	8.689212	21.284135
O	8.904094	6.296145	18.225261
O	9.713227	8.584718	16.823803
O	11.331492	6.296145	16.823803
O	11.479268	6.400639	19.882676
O	9.861003	8.689212	19.882676
O	8.904094	6.296145	15.422344
O	12.288401	8.689212	18.481217
Zn	13.245309	9.365848	22.941549
Zn	7.947186	5.619509	13.764929
Rh	10.596248	7.492679	15.294366
Rh	10.596248	7.492679	18.353239
Rh	7.947186	7.492679	16.823803
Rh	9.713227	4.995119	16.823803
