40

Na	1.975844	1.975844	1.975844
O	0.000000	1.975844	1.975844
O	1.975844	0.000000	1.975844
O	1.975844	1.975844	0.000000
Rh	0.000000	0.000000	0.000000
Na	1.975844	1.975844	5.927533
O	0.000000	1.975844	5.927533
O	1.975844	0.000000	5.927533
O	1.975844	1.975844	3.951688
Rh	0.000000	0.000000	3.951688
Na	1.975844	5.927533	1.975844
O	0.000000	5.927533	1.975844
O	1.975844	3.951688	1.975844
O	1.975844	5.927533	0.000000
Rh	0.000000	3.951688	0.000000
Na	1.975844	5.927533	5.927533
O	0.000000	5.927533	5.927533
O	1.975844	3.951688	5.927533
O	1.975844	5.927533	3.951688
Rh	0.000000	3.951688	3.951688
Na	5.927533	1.975844	1.975844
O	3.951688	1.975844	1.975844
O	5.927533	0.000000	1.975844
O	5.927533	1.975844	0.000000
Rh	3.951688	0.000000	0.000000
Na	5.927533	1.975844	5.927533
O	3.951688	1.975844	5.927533
O	5.927533	0.000000	5.927533
O	5.927533	1.975844	3.951688
Rh	3.951688	0.000000	3.951688
Na	5.927533	5.927533	1.975844
O	3.951688	5.927533	1.975844
O	5.927533	3.951688	1.975844
O	5.927533	5.927533	0.000000
Rh	3.951688	3.951688	0.000000
Na	5.927533	5.927533	5.927533
O	3.951688	5.927533	5.927533
O	5.927533	3.951688	5.927533
O	5.927533	5.927533	3.951688
Rh	3.951688	3.951688	3.951688
