40

Ag	0.000000	0.000000	0.000000
O	2.159171	2.159171	0.000000
O	2.159171	0.000000	2.159171
O	0.000000	2.159171	2.159171
Rb	2.159171	2.159171	2.159171
Ag	0.000000	0.000000	4.318339
O	2.159171	2.159171	4.318339
O	2.159171	0.000000	6.477510
O	0.000000	2.159171	6.477510
Rb	2.159171	2.159171	6.477510
Ag	0.000000	4.318339	0.000000
O	2.159171	6.477510	0.000000
O	2.159171	4.318339	2.159171
O	0.000000	6.477510	2.159171
Rb	2.159171	6.477510	2.159171
Ag	0.000000	4.318339	4.318339
O	2.159171	6.477510	4.318339
O	2.159171	4.318339	6.477510
O	0.000000	6.477510	6.477510
Rb	2.159171	6.477510	6.477510
Ag	4.318339	0.000000	0.000000
O	6.477510	2.159171	0.000000
O	6.477510	0.000000	2.159171
O	4.318339	2.159171	2.159171
Rb	6.477510	2.159171	2.159171
Ag	4.318339	0.000000	4.318339
O	6.477510	2.159171	4.318339
O	6.477510	0.000000	6.477510
O	4.318339	2.159171	6.477510
Rb	6.477510	2.159171	6.477510
Ag	4.318339	4.318339	0.000000
O	6.477510	6.477510	0.000000
O	6.477510	4.318339	2.159171
O	4.318339	6.477510	2.159171
Rb	6.477510	6.477510	2.159171
Ag	4.318339	4.318339	4.318339
O	6.477510	6.477510	4.318339
O	6.477510	4.318339	6.477510
O	4.318339	6.477510	6.477510
Rb	6.477510	6.477510	6.477510
