440

Zn	2.294372	2.367876	2.367876
Zn	4.662249	0.000000	4.662249
Zn	2.294372	6.956621	6.956621
Zn	4.662249	4.662249	0.000000
Zn	7.030125	2.367876	6.956621
Zn	0.000000	0.000000	0.000000
Zn	7.030125	6.956621	2.367876
Er	1.178739	8.179300	3.483510
Er	3.500280	1.161969	8.162529
Er	3.517051	3.483510	5.840987
Er	1.178739	1.145197	5.840987
Er	1.178739	3.483510	8.179300
Er	3.517051	5.840987	3.483510
Er	3.500280	8.162529	1.161969
Er	1.178739	5.840987	1.145197
Er	5.824217	8.162529	8.162529
Er	8.145759	1.145197	3.483510
Er	8.145759	3.483510	1.145197
Er	5.824217	1.161969	1.161969
Er	5.807446	3.483510	3.483510
Er	8.145759	5.840987	8.179300
Er	8.145759	8.179300	5.840987
Er	5.807446	5.840987	5.840987
O	3.563342	1.098906	1.098906
O	5.792301	3.564505	5.759992
O	5.761155	1.098906	8.225591
O	3.532196	3.564505	3.564505
O	3.466477	1.195772	5.896567
O	1.234319	8.128726	1.195772
O	1.234319	1.195772	8.128726
O	3.466477	8.128726	3.427930
O	3.532196	5.759992	5.759992
O	5.761155	8.225591	1.098906
O	5.792301	5.759992	3.564505
O	3.563342	8.225591	8.225591
O	3.466477	5.896567	1.195772
O	1.415810	3.246438	6.078059
O	1.415810	6.078059	3.246438
O	3.466477	3.427930	8.128726
O	8.226754	1.130053	5.759992
O	1.097744	3.564505	1.130053
O	1.097744	1.130053	3.564505
O	8.226754	3.564505	8.194445
O	8.090178	1.195772	1.195772
O	5.858020	8.128726	5.896567
O	5.858020	1.195772	3.427930
O	8.090178	8.128726	8.128726
O	8.226754	5.759992	1.130053
O	1.097744	8.194445	5.759992
O	1.097744	5.759992	8.194445
O	8.226754	8.194445	3.564505
O	7.908687	6.078059	6.078059
O	5.858020	3.427930	1.195772
O	5.858020	5.896567	8.128726
O	7.908687	3.246438	3.246438
Zn	2.294372	2.367876	11.692374
Zn	4.662249	0.000000	13.986746
Zn	2.294372	6.956621	16.281118
Zn	4.662249	4.662249	9.324497
Zn	7.030125	2.367876	16.281118
Zn	0.000000	0.000000	9.324497
Zn	7.030125	6.956621	11.692374
Er	1.178739	8.179300	12.808007
Er	3.500280	1.161969	17.487026
Er	3.517051	3.483510	15.165485
Er	1.178739	1.145197	15.165485
Er	1.178739	3.483510	17.503797
Er	3.517051	5.840987	12.808007
Er	3.500280	8.162529	10.486466
Er	1.178739	5.840987	10.469695
Er	5.824217	8.162529	17.487026
Er	8.145759	1.145197	12.808007
Er	8.145759	3.483510	10.469695
Er	5.824217	1.161969	10.486466
Er	5.807446	3.483510	12.808007
Er	8.145759	5.840987	17.503797
Er	8.145759	8.179300	15.165485
Er	5.807446	5.840987	15.165485
O	3.563342	1.098906	10.423404
O	5.792301	3.564505	15.084489
O	5.761155	1.098906	17.550088
O	3.532196	3.564505	12.889002
O	3.466477	1.195772	15.221065
O	1.234319	8.128726	10.520269
O	1.234319	1.195772	17.453223
O	3.466477	8.128726	12.752427
O	3.532196	5.759992	15.084489
O	5.761155	8.225591	10.423404
O	5.792301	5.759992	12.889002
O	3.563342	8.225591	17.550088
O	3.466477	5.896567	10.520269
O	1.415810	3.246438	15.402556
O	1.415810	6.078059	12.570936
O	3.466477	3.427930	17.453223
O	8.226754	1.130053	15.084489
O	1.097744	3.564505	10.454550
O	1.097744	1.130053	12.889002
O	8.226754	3.564505	17.518942
O	8.090178	1.195772	10.520269
O	5.858020	8.128726	15.221065
O	5.858020	1.195772	12.752427
O	8.090178	8.128726	17.453223
O	8.226754	5.759992	10.454550
O	1.097744	8.194445	15.084489
O	1.097744	5.759992	17.518942
O	8.226754	8.194445	12.889002
O	7.908687	6.078059	15.402556
O	5.858020	3.427930	10.520269
O	5.858020	5.896567	17.453223
O	7.908687	3.246438	12.570936
Zn	2.294372	11.692374	2.367876
Zn	4.662249	9.324497	4.662249
Zn	2.294372	16.281118	6.956621
Zn	4.662249	13.986746	0.000000
Zn	7.030125	11.692374	6.956621
Zn	0.000000	9.324497	0.000000
Zn	7.030125	16.281118	2.367876
Er	1.178739	17.503797	3.483510
Er	3.500280	10.486466	8.162529
Er	3.517051	12.808007	5.840987
Er	1.178739	10.469695	5.840987
Er	1.178739	12.808007	8.179300
Er	3.517051	15.165485	3.483510
Er	3.500280	17.487026	1.161969
Er	1.178739	15.165485	1.145197
Er	5.824217	17.487026	8.162529
Er	8.145759	10.469695	3.483510
Er	8.145759	12.808007	1.145197
Er	5.824217	10.486466	1.161969
Er	5.807446	12.808007	3.483510
Er	8.145759	15.165485	8.179300
Er	8.145759	17.503797	5.840987
Er	5.807446	15.165485	5.840987
O	3.563342	10.423404	1.098906
O	5.792301	12.889002	5.759992
O	5.761155	10.423404	8.225591
O	3.532196	12.889002	3.564505
O	3.466477	10.520269	5.896567
O	1.234319	17.453223	1.195772
O	1.234319	10.520269	8.128726
O	3.466477	17.453223	3.427930
O	3.532196	15.084489	5.759992
O	5.761155	17.550088	1.098906
O	5.792301	15.084489	3.564505
O	3.563342	17.550088	8.225591
O	3.466477	15.221065	1.195772
O	1.415810	12.570936	6.078059
O	1.415810	15.402556	3.246438
O	3.466477	12.752427	8.128726
O	8.226754	10.454550	5.759992
O	1.097744	12.889002	1.130053
O	1.097744	10.454550	3.564505
O	8.226754	12.889002	8.194445
O	8.090178	10.520269	1.195772
O	5.858020	17.453223	5.896567
O	5.858020	10.520269	3.427930
O	8.090178	17.453223	8.128726
O	8.226754	15.084489	1.130053
O	1.097744	17.518942	5.759992
O	1.097744	15.084489	8.194445
O	8.226754	17.518942	3.564505
O	7.908687	15.402556	6.078059
O	5.858020	12.752427	1.195772
O	5.858020	15.221065	8.128726
O	7.908687	12.570936	3.246438
Zn	2.294372	11.692374	11.692374
Zn	4.662249	9.324497	13.986746
Zn	2.294372	16.281118	16.281118
Zn	4.662249	13.986746	9.324497
Zn	7.030125	11.692374	16.281118
Zn	0.000000	9.324497	9.324497
Zn	7.030125	16.281118	11.692374
Er	1.178739	17.503797	12.808007
Er	3.500280	10.486466	17.487026
Er	3.517051	12.808007	15.165485
Er	1.178739	10.469695	15.165485
Er	1.178739	12.808007	17.503797
Er	3.517051	15.165485	12.808007
Er	3.500280	17.487026	10.486466
Er	1.178739	15.165485	10.469695
Er	5.824217	17.487026	17.487026
Er	8.145759	10.469695	12.808007
Er	8.145759	12.808007	10.469695
Er	5.824217	10.486466	10.486466
Er	5.807446	12.808007	12.808007
Er	8.145759	15.165485	17.503797
Er	8.145759	17.503797	15.165485
Er	5.807446	15.165485	15.165485
O	3.563342	10.423404	10.423404
O	5.792301	12.889002	15.084489
O	5.761155	10.423404	17.550088
O	3.532196	12.889002	12.889002
O	3.466477	10.520269	15.221065
O	1.234319	17.453223	10.520269
O	1.234319	10.520269	17.453223
O	3.466477	17.453223	12.752427
O	3.532196	15.084489	15.084489
O	5.761155	17.550088	10.423404
O	5.792301	15.084489	12.889002
O	3.563342	17.550088	17.550088
O	3.466477	15.221065	10.520269
O	1.415810	12.570936	15.402556
O	1.415810	15.402556	12.570936
O	3.466477	12.752427	17.453223
O	8.226754	10.454550	15.084489
O	1.097744	12.889002	10.454550
O	1.097744	10.454550	12.889002
O	8.226754	12.889002	17.518942
O	8.090178	10.520269	10.520269
O	5.858020	17.453223	15.221065
O	5.858020	10.520269	12.752427
O	8.090178	17.453223	17.453223
O	8.226754	15.084489	10.454550
O	1.097744	17.518942	15.084489
O	1.097744	15.084489	17.518942
O	8.226754	17.518942	12.889002
O	7.908687	15.402556	15.402556
O	5.858020	12.752427	10.520269
O	5.858020	15.221065	17.453223
O	7.908687	12.570936	12.570936
Zn	11.618870	2.367876	2.367876
Zn	13.986746	0.000000	4.662249
Zn	11.618870	6.956621	6.956621
Zn	13.986746	4.662249	0.000000
Zn	16.354622	2.367876	6.956621
Zn	9.324497	0.000000	0.000000
Zn	16.354622	6.956621	2.367876
Er	10.503236	8.179300	3.483510
Er	12.824777	1.161969	8.162529
Er	12.841549	3.483510	5.840987
Er	10.503236	1.145197	5.840987
Er	10.503236	3.483510	8.179300
Er	12.841549	5.840987	3.483510
Er	12.824777	8.162529	1.161969
Er	10.503236	5.840987	1.145197
Er	15.148715	8.162529	8.162529
Er	17.470256	1.145197	3.483510
Er	17.470256	3.483510	1.145197
Er	15.148715	1.161969	1.161969
Er	15.131943	3.483510	3.483510
Er	17.470256	5.840987	8.179300
Er	17.470256	8.179300	5.840987
Er	15.131943	5.840987	5.840987
O	12.887839	1.098906	1.098906
O	15.116798	3.564505	5.759992
O	15.085652	1.098906	8.225591
O	12.856693	3.564505	3.564505
O	12.790974	1.195772	5.896567
O	10.558816	8.128726	1.195772
O	10.558816	1.195772	8.128726
O	12.790974	8.128726	3.427930
O	12.856693	5.759992	5.759992
O	15.085652	8.225591	1.098906
O	15.116798	5.759992	3.564505
O	12.887839	8.225591	8.225591
O	12.790974	5.896567	1.195772
O	10.740308	3.246438	6.078059
O	10.740308	6.078059	3.246438
O	12.790974	3.427930	8.128726
O	17.551251	1.130053	5.759992
O	10.422241	3.564505	1.130053
O	10.422241	1.130053	3.564505
O	17.551251	3.564505	8.194445
O	17.414676	1.195772	1.195772
O	15.182518	8.128726	5.896567
O	15.182518	1.195772	3.427930
O	17.414676	8.128726	8.128726
O	17.551251	5.759992	1.130053
O	10.422241	8.194445	5.759992
O	10.422241	5.759992	8.194445
O	17.551251	8.194445	3.564505
O	17.233184	6.078059	6.078059
O	15.182518	3.427930	1.195772
O	15.182518	5.896567	8.128726
O	17.233184	3.246438	3.246438
Zn	11.618870	2.367876	11.692374
Zn	13.986746	0.000000	13.986746
Zn	11.618870	6.956621	16.281118
Zn	13.986746	4.662249	9.324497
Zn	16.354622	2.367876	16.281118
Zn	9.324497	0.000000	9.324497
Zn	16.354622	6.956621	11.692374
Er	10.503236	8.179300	12.808007
Er	12.824777	1.161969	17.487026
Er	12.841549	3.483510	15.165485
Er	10.503236	1.145197	15.165485
Er	10.503236	3.483510	17.503797
Er	12.841549	5.840987	12.808007
Er	12.824777	8.162529	10.486466
Er	10.503236	5.840987	10.469695
Er	15.148715	8.162529	17.487026
Er	17.470256	1.145197	12.808007
Er	17.470256	3.483510	10.469695
Er	15.148715	1.161969	10.486466
Er	15.131943	3.483510	12.808007
Er	17.470256	5.840987	17.503797
Er	17.470256	8.179300	15.165485
Er	15.131943	5.840987	15.165485
O	12.887839	1.098906	10.423404
O	15.116798	3.564505	15.084489
O	15.085652	1.098906	17.550088
O	12.856693	3.564505	12.889002
O	12.790974	1.195772	15.221065
O	10.558816	8.128726	10.520269
O	10.558816	1.195772	17.453223
O	12.790974	8.128726	12.752427
O	12.856693	5.759992	15.084489
O	15.085652	8.225591	10.423404
O	15.116798	5.759992	12.889002
O	12.887839	8.225591	17.550088
O	12.790974	5.896567	10.520269
O	10.740308	3.246438	15.402556
O	10.740308	6.078059	12.570936
O	12.790974	3.427930	17.453223
O	17.551251	1.130053	15.084489
O	10.422241	3.564505	10.454550
O	10.422241	1.130053	12.889002
O	17.551251	3.564505	17.518942
O	17.414676	1.195772	10.520269
O	15.182518	8.128726	15.221065
O	15.182518	1.195772	12.752427
O	17.414676	8.128726	17.453223
O	17.551251	5.759992	10.454550
O	10.422241	8.194445	15.084489
O	10.422241	5.759992	17.518942
O	17.551251	8.194445	12.889002
O	17.233184	6.078059	15.402556
O	15.182518	3.427930	10.520269
O	15.182518	5.896567	17.453223
O	17.233184	3.246438	12.570936
Zn	11.618870	11.692374	2.367876
Zn	13.986746	9.324497	4.662249
Zn	11.618870	16.281118	6.956621
Zn	13.986746	13.986746	0.000000
Zn	16.354622	11.692374	6.956621
Zn	9.324497	9.324497	0.000000
Zn	16.354622	16.281118	2.367876
Er	10.503236	17.503797	3.483510
Er	12.824777	10.486466	8.162529
Er	12.841549	12.808007	5.840987
Er	10.503236	10.469695	5.840987
Er	10.503236	12.808007	8.179300
Er	12.841549	15.165485	3.483510
Er	12.824777	17.487026	1.161969
Er	10.503236	15.165485	1.145197
Er	15.148715	17.487026	8.162529
Er	17.470256	10.469695	3.483510
Er	17.470256	12.808007	1.145197
Er	15.148715	10.486466	1.161969
Er	15.131943	12.808007	3.483510
Er	17.470256	15.165485	8.179300
Er	17.470256	17.503797	5.840987
Er	15.131943	15.165485	5.840987
O	12.887839	10.423404	1.098906
O	15.116798	12.889002	5.759992
O	15.085652	10.423404	8.225591
O	12.856693	12.889002	3.564505
O	12.790974	10.520269	5.896567
O	10.558816	17.453223	1.195772
O	10.558816	10.520269	8.128726
O	12.790974	17.453223	3.427930
O	12.856693	15.084489	5.759992
O	15.085652	17.550088	1.098906
O	15.116798	15.084489	3.564505
O	12.887839	17.550088	8.225591
O	12.790974	15.221065	1.195772
O	10.740308	12.570936	6.078059
O	10.740308	15.402556	3.246438
O	12.790974	12.752427	8.128726
O	17.551251	10.454550	5.759992
O	10.422241	12.889002	1.130053
O	10.422241	10.454550	3.564505
O	17.551251	12.889002	8.194445
O	17.414676	10.520269	1.195772
O	15.182518	17.453223	5.896567
O	15.182518	10.520269	3.427930
O	17.414676	17.453223	8.128726
O	17.551251	15.084489	1.130053
O	10.422241	17.518942	5.759992
O	10.422241	15.084489	8.194445
O	17.551251	17.518942	3.564505
O	17.233184	15.402556	6.078059
O	15.182518	12.752427	1.195772
O	15.182518	15.221065	8.128726
O	17.233184	12.570936	3.246438
Zn	11.618870	11.692374	11.692374
Zn	13.986746	9.324497	13.986746
Zn	11.618870	16.281118	16.281118
Zn	13.986746	13.986746	9.324497
Zn	16.354622	11.692374	16.281118
Zn	9.324497	9.324497	9.324497
Zn	16.354622	16.281118	11.692374
Er	10.503236	17.503797	12.808007
Er	12.824777	10.486466	17.487026
Er	12.841549	12.808007	15.165485
Er	10.503236	10.469695	15.165485
Er	10.503236	12.808007	17.503797
Er	12.841549	15.165485	12.808007
Er	12.824777	17.487026	10.486466
Er	10.503236	15.165485	10.469695
Er	15.148715	17.487026	17.487026
Er	17.470256	10.469695	12.808007
Er	17.470256	12.808007	10.469695
Er	15.148715	10.486466	10.486466
Er	15.131943	12.808007	12.808007
Er	17.470256	15.165485	17.503797
Er	17.470256	17.503797	15.165485
Er	15.131943	15.165485	15.165485
O	12.887839	10.423404	10.423404
O	15.116798	12.889002	15.084489
O	15.085652	10.423404	17.550088
O	12.856693	12.889002	12.889002
O	12.790974	10.520269	15.221065
O	10.558816	17.453223	10.520269
O	10.558816	10.520269	17.453223
O	12.790974	17.453223	12.752427
O	12.856693	15.084489	15.084489
O	15.085652	17.550088	10.423404
O	15.116798	15.084489	12.889002
O	12.887839	17.550088	17.550088
O	12.790974	15.221065	10.520269
O	10.740308	12.570936	15.402556
O	10.740308	15.402556	12.570936
O	12.790974	12.752427	17.453223
O	17.551251	10.454550	15.084489
O	10.422241	12.889002	10.454550
O	10.422241	10.454550	12.889002
O	17.551251	12.889002	17.518942
O	17.414676	10.520269	10.520269
O	15.182518	17.453223	15.221065
O	15.182518	10.520269	12.752427
O	17.414676	17.453223	17.453223
O	17.551251	15.084489	10.454550
O	10.422241	17.518942	15.084489
O	10.422241	15.084489	17.518942
O	17.551251	17.518942	12.889002
O	17.233184	15.402556	15.402556
O	15.182518	12.752427	10.520269
O	15.182518	15.221065	17.453223
O	17.233184	12.570936	12.570936
