40

Cd	2.115538	2.115538	2.115538
O	0.000000	2.115538	2.115538
O	2.115538	0.000000	2.115538
O	2.115538	2.115538	0.000000
Pb	0.000000	0.000000	0.000000
Cd	2.115538	2.115538	6.346614
O	0.000000	2.115538	6.346614
O	2.115538	0.000000	6.346614
O	2.115538	2.115538	4.231076
Pb	0.000000	0.000000	4.231076
Cd	2.115538	6.346614	2.115538
O	0.000000	6.346614	2.115538
O	2.115538	4.231076	2.115538
O	2.115538	6.346614	0.000000
Pb	0.000000	4.231076	0.000000
Cd	2.115538	6.346614	6.346614
O	0.000000	6.346614	6.346614
O	2.115538	4.231076	6.346614
O	2.115538	6.346614	4.231076
Pb	0.000000	4.231076	4.231076
Cd	6.346614	2.115538	2.115538
O	4.231076	2.115538	2.115538
O	6.346614	0.000000	2.115538
O	6.346614	2.115538	0.000000
Pb	4.231076	0.000000	0.000000
Cd	6.346614	2.115538	6.346614
O	4.231076	2.115538	6.346614
O	6.346614	0.000000	6.346614
O	6.346614	2.115538	4.231076
Pb	4.231076	0.000000	4.231076
Cd	6.346614	6.346614	2.115538
O	4.231076	6.346614	2.115538
O	6.346614	4.231076	2.115538
O	6.346614	6.346614	0.000000
Pb	4.231076	4.231076	0.000000
Cd	6.346614	6.346614	6.346614
O	4.231076	6.346614	6.346614
O	6.346614	4.231076	6.346614
O	6.346614	6.346614	4.231076
Pb	4.231076	4.231076	4.231076
