112

K	0.000000	0.000000	0.000000
K	2.445085	-2.445676	-2.445676
O	-0.999086	0.998787	-3.892565
O	3.891075	-0.998787	-0.998787
O	0.999086	-0.998787	-3.892565
O	1.445999	1.446889	-1.446889
O	5.889247	0.998787	-0.998787
O	1.445999	3.444464	-3.444464
O	3.444162	3.444464	-1.446889
O	3.444162	1.446889	-3.444464
Tm	-1.222543	-1.222838	-3.668514
Tm	3.667618	1.222838	-1.222838
Tm	1.222543	1.222838	-3.668514
Tm	6.112704	-1.222838	-1.222838
K	4.890162	4.891354	0.000000
K	7.335248	2.445678	-2.445676
O	3.891076	5.890142	-3.892565
O	8.781237	3.892567	-0.998787
O	5.889248	3.892567	-3.892565
O	6.336161	6.338243	-1.446889
O	10.779409	5.890142	-0.998787
O	6.336161	8.335818	-3.444464
O	8.334324	8.335818	-1.446889
O	8.334324	6.338243	-3.444464
Tm	3.667619	3.668516	-3.668514
Tm	8.557780	6.114192	-1.222838
Tm	6.112705	6.114192	-3.668514
Tm	11.002866	3.668516	-1.222838
K	-4.890162	0.000000	-4.891354
K	-2.445077	-2.445676	-7.337030
O	-5.889248	0.998787	-8.783919
O	-0.999087	-0.998787	-5.890142
O	-3.891076	-0.998787	-8.783919
O	-3.444163	1.446889	-6.338243
O	0.999085	0.998787	-5.890142
O	-3.444163	3.444464	-8.335818
O	-1.446000	3.444464	-6.338243
O	-1.446000	1.446889	-8.335818
Tm	-6.112705	-1.222838	-8.559868
Tm	-1.222544	1.222838	-6.114192
Tm	-3.667619	1.222838	-8.559868
Tm	1.222542	-1.222838	-6.114192
K	0.000000	4.891354	-4.891354
K	2.445085	2.445678	-7.337030
O	-0.999086	5.890142	-8.783919
O	3.891075	3.892567	-5.890142
O	0.999086	3.892567	-8.783919
O	1.445999	6.338243	-6.338243
O	5.889247	5.890142	-5.890142
O	1.445999	8.335818	-8.335818
O	3.444162	8.335818	-6.338243
O	3.444162	6.338243	-8.335818
Tm	-1.222543	3.668516	-8.559868
Tm	3.667618	6.114192	-6.114192
Tm	1.222543	6.114192	-8.559868
Tm	6.112704	3.668516	-6.114192
K	4.890162	-4.891354	0.000000
K	7.335248	-7.337030	-2.445676
O	3.891076	-3.892567	-3.892565
O	8.781237	-5.890142	-0.998787
O	5.889248	-5.890142	-3.892565
O	6.336161	-3.444466	-1.446889
O	10.779409	-3.892567	-0.998787
O	6.336161	-1.446891	-3.444464
O	8.334324	-1.446891	-1.446889
O	8.334324	-3.444465	-3.444464
Tm	3.667619	-6.114192	-3.668514
Tm	8.557780	-3.668516	-1.222838
Tm	6.112705	-3.668516	-3.668514
Tm	11.002866	-6.114192	-1.222838
K	9.780324	0.000000	0.000000
K	12.225410	-2.445676	-2.445676
O	8.781238	0.998787	-3.892565
O	13.671399	-0.998787	-0.998787
O	10.779410	-0.998787	-3.892565
O	11.226323	1.446889	-1.446889
O	15.669571	0.998787	-0.998787
O	11.226323	3.444464	-3.444464
O	13.224486	3.444464	-1.446889
O	13.224486	1.446889	-3.444464
Tm	8.557781	-1.222838	-3.668514
Tm	13.447942	1.222838	-1.222838
Tm	11.002867	1.222838	-3.668514
Tm	15.893028	-1.222838	-1.222838
K	0.000000	-4.891354	-4.891354
K	2.445085	-7.337030	-7.337030
O	-0.999086	-3.892567	-8.783919
O	3.891075	-5.890142	-5.890142
O	0.999086	-5.890142	-8.783919
O	1.445999	-3.444466	-6.338243
O	5.889247	-3.892567	-5.890142
O	1.445999	-1.446891	-8.335818
O	3.444162	-1.446891	-6.338243
O	3.444162	-3.444465	-8.335818
Tm	-1.222543	-6.114192	-8.559868
Tm	3.667618	-3.668516	-6.114192
Tm	1.222543	-3.668516	-8.559868
Tm	6.112704	-6.114192	-6.114192
K	4.890162	0.000000	-4.891354
K	7.335248	-2.445676	-7.337030
O	3.891076	0.998787	-8.783919
O	8.781237	-0.998787	-5.890142
O	5.889248	-0.998787	-8.783919
O	6.336161	1.446889	-6.338243
O	10.779409	0.998787	-5.890142
O	6.336161	3.444464	-8.335818
O	8.334324	3.444464	-6.338243
O	8.334324	1.446889	-8.335818
Tm	3.667619	-1.222838	-8.559868
Tm	8.557780	1.222838	-6.114192
Tm	6.112705	1.222838	-8.559868
Tm	11.002866	-1.222838	-6.114192
