40

Ir	0.000000	0.000000	0.000000
O	2.043350	2.043350	0.000000
O	0.000000	2.043350	2.043350
O	2.043350	0.000000	2.043350
Te	2.043350	2.043350	2.043350
Ir	0.000000	0.000000	4.086704
O	2.043350	2.043350	4.086704
O	0.000000	2.043350	6.130054
O	2.043350	0.000000	6.130054
Te	2.043350	2.043350	6.130054
Ir	0.000000	4.086704	0.000000
O	2.043350	6.130054	0.000000
O	0.000000	6.130054	2.043350
O	2.043350	4.086704	2.043350
Te	2.043350	6.130054	2.043350
Ir	0.000000	4.086704	4.086704
O	2.043350	6.130054	4.086704
O	0.000000	6.130054	6.130054
O	2.043350	4.086704	6.130054
Te	2.043350	6.130054	6.130054
Ir	4.086704	0.000000	0.000000
O	6.130054	2.043350	0.000000
O	4.086704	2.043350	2.043350
O	6.130054	0.000000	2.043350
Te	6.130054	2.043350	2.043350
Ir	4.086704	0.000000	4.086704
O	6.130054	2.043350	4.086704
O	4.086704	2.043350	6.130054
O	6.130054	0.000000	6.130054
Te	6.130054	2.043350	6.130054
Ir	4.086704	4.086704	0.000000
O	6.130054	6.130054	0.000000
O	4.086704	6.130054	2.043350
O	6.130054	4.086704	2.043350
Te	6.130054	6.130054	2.043350
Ir	4.086704	4.086704	4.086704
O	6.130054	6.130054	4.086704
O	4.086704	6.130054	6.130054
O	6.130054	4.086704	6.130054
Te	6.130054	6.130054	6.130054
