40

Ir	1.986980	1.986980	1.986980
O	1.986980	1.986980	0.000000
O	0.000000	1.986980	1.986980
O	1.986980	0.000000	1.986980
Te	0.000000	0.000000	0.000000
Ir	1.986980	1.986980	5.960946
O	1.986980	1.986980	3.973966
O	0.000000	1.986980	5.960946
O	1.986980	0.000000	5.960946
Te	0.000000	0.000000	3.973966
Ir	1.986980	5.960946	1.986980
O	1.986980	5.960946	0.000000
O	0.000000	5.960946	1.986980
O	1.986980	3.973966	1.986980
Te	0.000000	3.973966	0.000000
Ir	1.986980	5.960946	5.960946
O	1.986980	5.960946	3.973966
O	0.000000	5.960946	5.960946
O	1.986980	3.973966	5.960946
Te	0.000000	3.973966	3.973966
Ir	5.960946	1.986980	1.986980
O	5.960946	1.986980	0.000000
O	3.973966	1.986980	1.986980
O	5.960946	0.000000	1.986980
Te	3.973966	0.000000	0.000000
Ir	5.960946	1.986980	5.960946
O	5.960946	1.986980	3.973966
O	3.973966	1.986980	5.960946
O	5.960946	0.000000	5.960946
Te	3.973966	0.000000	3.973966
Ir	5.960946	5.960946	1.986980
O	5.960946	5.960946	0.000000
O	3.973966	5.960946	1.986980
O	5.960946	3.973966	1.986980
Te	3.973966	3.973966	0.000000
Ir	5.960946	5.960946	5.960946
O	5.960946	5.960946	3.973966
O	3.973966	5.960946	5.960946
O	5.960946	3.973966	5.960946
Te	3.973966	3.973966	3.973966
