40

Co	1.902223	1.902223	1.902223
I	0.000000	0.000000	0.000000
O	0.000000	1.902223	1.902223
O	1.902223	0.000000	1.902223
O	1.902223	1.902223	0.000000
Co	1.902223	1.902223	5.706670
I	0.000000	0.000000	3.804446
O	0.000000	1.902223	5.706670
O	1.902223	0.000000	5.706670
O	1.902223	1.902223	3.804446
Co	1.902223	5.706670	1.902223
I	0.000000	3.804446	0.000000
O	0.000000	5.706670	1.902223
O	1.902223	3.804446	1.902223
O	1.902223	5.706670	0.000000
Co	1.902223	5.706670	5.706670
I	0.000000	3.804446	3.804446
O	0.000000	5.706670	5.706670
O	1.902223	3.804446	5.706670
O	1.902223	5.706670	3.804446
Co	5.706670	1.902223	1.902223
I	3.804446	0.000000	0.000000
O	3.804446	1.902223	1.902223
O	5.706670	0.000000	1.902223
O	5.706670	1.902223	0.000000
Co	5.706670	1.902223	5.706670
I	3.804446	0.000000	3.804446
O	3.804446	1.902223	5.706670
O	5.706670	0.000000	5.706670
O	5.706670	1.902223	3.804446
Co	5.706670	5.706670	1.902223
I	3.804446	3.804446	0.000000
O	3.804446	5.706670	1.902223
O	5.706670	3.804446	1.902223
O	5.706670	5.706670	0.000000
Co	5.706670	5.706670	5.706670
I	3.804446	3.804446	3.804446
O	3.804446	5.706670	5.706670
O	5.706670	3.804446	5.706670
O	5.706670	5.706670	3.804446
