112

B	0.000000	0.000000	0.000000
B	1.996736	-1.996278	-1.996278
Mn	-0.998368	-0.998139	-2.994417
Mn	2.995104	0.998139	-0.998139
Mn	4.991839	-0.998139	-0.998139
Mn	0.998368	0.998139	-2.994417
O	2.878215	-1.114597	-1.114597
O	-1.115256	1.114597	-2.877958
O	1.115256	-1.114597	-2.877958
O	0.881480	0.881681	-0.881681
O	5.108727	1.114597	-1.114597
O	0.881480	3.110875	-3.110875
O	3.111992	3.110875	-0.881681
O	3.111992	0.881681	-3.110875
B	3.993471	3.992556	0.000000
B	5.990207	1.996278	-1.996278
Mn	2.995104	2.994417	-2.994417
Mn	6.988575	4.990695	-0.998139
Mn	8.985311	2.994417	-0.998139
Mn	4.991839	4.990695	-2.994417
O	6.871687	2.877958	-1.114597
O	2.878215	5.107153	-2.877958
O	5.108727	2.877958	-2.877958
O	4.874951	4.874236	-0.881681
O	9.102199	5.107153	-1.114597
O	4.874951	7.103431	-3.110875
O	7.105463	7.103431	-0.881681
O	7.105463	4.874236	-3.110875
B	-3.993471	0.000000	-3.992556
B	-1.996736	-1.996278	-5.988834
Mn	-4.991839	-0.998139	-6.986972
Mn	-0.998368	0.998139	-4.990695
Mn	0.998368	-0.998139	-4.990695
Mn	-2.995104	0.998139	-6.986972
O	-1.115256	-1.114597	-5.107153
O	-5.108727	1.114597	-6.870514
O	-2.878215	-1.114597	-6.870514
O	-3.111992	0.881681	-4.874236
O	1.115256	1.114597	-5.107153
O	-3.111992	3.110875	-7.103431
O	-0.881480	3.110875	-4.874236
O	-0.881480	0.881681	-7.103431
B	0.000000	3.992556	-3.992556
B	1.996736	1.996278	-5.988834
Mn	-0.998368	2.994417	-6.986972
Mn	2.995104	4.990695	-4.990695
Mn	4.991839	2.994417	-4.990695
Mn	0.998368	4.990695	-6.986972
O	2.878215	2.877958	-5.107153
O	-1.115256	5.107153	-6.870514
O	1.115256	2.877958	-6.870514
O	0.881480	4.874236	-4.874236
O	5.108727	5.107153	-5.107153
O	0.881480	7.103431	-7.103431
O	3.111992	7.103431	-4.874236
O	3.111992	4.874236	-7.103431
B	3.993471	-3.992556	0.000000
B	5.990207	-5.988834	-1.996278
Mn	2.995104	-4.990695	-2.994417
Mn	6.988575	-2.994417	-0.998139
Mn	8.985311	-4.990695	-0.998139
Mn	4.991839	-2.994417	-2.994417
O	6.871687	-5.107153	-1.114597
O	2.878215	-2.877958	-2.877958
O	5.108727	-5.107153	-2.877958
O	4.874951	-3.110875	-0.881681
O	9.102199	-2.877958	-1.114597
O	4.874951	-0.881681	-3.110875
O	7.105463	-0.881681	-0.881681
O	7.105463	-3.110875	-3.110875
B	7.986943	0.000000	0.000000
B	9.983678	-1.996278	-1.996278
Mn	6.988575	-0.998139	-2.994417
Mn	10.982046	0.998139	-0.998139
Mn	12.978782	-0.998139	-0.998139
Mn	8.985311	0.998139	-2.994417
O	10.865158	-1.114597	-1.114597
O	6.871687	1.114597	-2.877958
O	9.102199	-1.114597	-2.877958
O	8.868422	0.881681	-0.881681
O	13.095670	1.114597	-1.114597
O	8.868422	3.110875	-3.110875
O	11.098935	3.110875	-0.881681
O	11.098934	0.881681	-3.110875
B	0.000000	-3.992556	-3.992556
B	1.996736	-5.988834	-5.988834
Mn	-0.998368	-4.990695	-6.986972
Mn	2.995104	-2.994417	-4.990695
Mn	4.991839	-4.990695	-4.990695
Mn	0.998368	-2.994417	-6.986972
O	2.878215	-5.107153	-5.107153
O	-1.115256	-2.877958	-6.870514
O	1.115256	-5.107153	-6.870514
O	0.881480	-3.110875	-4.874236
O	5.108727	-2.877958	-5.107153
O	0.881480	-0.881681	-7.103431
O	3.111992	-0.881681	-4.874236
O	3.111992	-3.110875	-7.103431
B	3.993471	0.000000	-3.992556
B	5.990207	-1.996278	-5.988834
Mn	2.995104	-0.998139	-6.986972
Mn	6.988575	0.998139	-4.990695
Mn	8.985311	-0.998139	-4.990695
Mn	4.991839	0.998139	-6.986972
O	6.871687	-1.114597	-5.107153
O	2.878215	1.114597	-6.870514
O	5.108727	-1.114597	-6.870514
O	4.874951	0.881681	-4.874236
O	9.102199	1.114597	-5.107153
O	4.874951	3.110875	-7.103431
O	7.105463	3.110875	-4.874236
O	7.105463	0.881681	-7.103431
