40

O	0.000000	2.229624	2.229624
O	2.229624	0.000000	2.229624
O	2.229624	2.229624	0.000000
Sr	2.229624	2.229624	2.229624
V	0.000000	0.000000	0.000000
O	0.000000	2.229624	6.688873
O	2.229624	0.000000	6.688873
O	2.229624	2.229624	4.459248
Sr	2.229624	2.229624	6.688873
V	0.000000	0.000000	4.459248
O	0.000000	6.688873	2.229624
O	2.229624	4.459248	2.229624
O	2.229624	6.688873	0.000000
Sr	2.229624	6.688873	2.229624
V	0.000000	4.459248	0.000000
O	0.000000	6.688873	6.688873
O	2.229624	4.459248	6.688873
O	2.229624	6.688873	4.459248
Sr	2.229624	6.688873	6.688873
V	0.000000	4.459248	4.459248
O	4.459248	2.229624	2.229624
O	6.688873	0.000000	2.229624
O	6.688873	2.229624	0.000000
Sr	6.688873	2.229624	2.229624
V	4.459248	0.000000	0.000000
O	4.459248	2.229624	6.688873
O	6.688873	0.000000	6.688873
O	6.688873	2.229624	4.459248
Sr	6.688873	2.229624	6.688873
V	4.459248	0.000000	4.459248
O	4.459248	6.688873	2.229624
O	6.688873	4.459248	2.229624
O	6.688873	6.688873	0.000000
Sr	6.688873	6.688873	2.229624
V	4.459248	4.459248	0.000000
O	4.459248	6.688873	6.688873
O	6.688873	4.459248	6.688873
O	6.688873	6.688873	4.459248
Sr	6.688873	6.688873	6.688873
V	4.459248	4.459248	4.459248
