40

O	1.915687	0.000000	0.000000
O	0.000000	1.915687	0.000000
O	0.000000	0.000000	1.915687
Sr	1.915687	1.915687	1.915687
V	-0.015000	0.000000	0.000000
O	1.915687	0.000000	3.831374
O	0.000000	1.915687	3.831374
O	0.000000	0.000000	5.747061
Sr	1.915687	1.915687	5.747061
V	-0.015000	0.000000	3.831374
O	1.915687	3.831374	0.000000
O	0.000000	5.747061	0.000000
O	0.000000	3.831374	1.915687
Sr	1.915687	5.747061	1.915687
V	-0.015000	3.831374	0.000000
O	1.915687	3.831374	3.831374
O	0.000000	5.747061	3.831374
O	0.000000	3.831374	5.747061
Sr	1.915687	5.747061	5.747061
V	-0.015000	3.831374	3.831374
O	5.747061	0.000000	0.000000
O	3.831374	1.915687	0.000000
O	3.831374	0.000000	1.915687
Sr	5.747061	1.915687	1.915687
V	3.816374	0.000000	0.000000
O	5.747061	0.000000	3.831374
O	3.831374	1.915687	3.831374
O	3.831374	0.000000	5.747061
Sr	5.747061	1.915687	5.747061
V	3.816374	0.000000	3.831374
O	5.747061	3.831374	0.000000
O	3.831374	5.747061	0.000000
O	3.831374	3.831374	1.915687
Sr	5.747061	5.747061	1.915687
V	3.816374	3.831374	0.000000
O	5.747061	3.831374	3.831374
O	3.831374	5.747061	3.831374
O	3.831374	3.831374	5.747061
Sr	5.747061	5.747061	5.747061
V	3.816374	3.831374	3.831374
