112

As	0.000000	0.000000	0.000000
As	2.509961	-2.511477	-2.511477
La	-1.254980	-1.255739	-3.767216
La	3.764941	1.255739	-1.255739
La	6.274902	-1.255739	-1.255739
La	1.254980	1.255739	-3.767216
O	3.839047	-1.180943	-1.180943
O	-1.180875	1.180943	-3.842012
O	1.180875	-1.180943	-3.842012
O	1.329086	1.330534	-1.330534
O	6.200796	1.180943	-1.180943
O	1.329086	3.692420	-3.692420
O	3.690836	3.692420	-1.330534
O	3.690836	1.330534	-3.692420
As	5.019921	5.022955	0.000000
As	7.529882	2.511477	-2.511477
La	3.764941	3.767216	-3.767216
La	8.784863	6.278694	-1.255739
La	11.294823	3.767216	-1.255739
La	6.274902	6.278694	-3.767216
O	8.858968	3.842012	-1.180943
O	3.839047	6.203898	-3.842012
O	6.200796	3.842012	-3.842012
O	6.349007	6.353489	-1.330534
O	11.220718	6.203898	-1.180943
O	6.349007	8.715375	-3.692420
O	8.710757	8.715375	-1.330534
O	8.710757	6.353489	-3.692420
As	-5.019921	0.000000	-5.022955
As	-2.509961	-2.511477	-7.534432
La	-6.274902	-1.255739	-8.790171
La	-1.254980	1.255739	-6.278694
La	1.254980	-1.255739	-6.278694
La	-3.764941	1.255739	-8.790171
O	-1.180875	-1.180943	-6.203898
O	-6.200796	1.180943	-8.864967
O	-3.839047	-1.180943	-8.864967
O	-3.690836	1.330534	-6.353489
O	1.180875	1.180943	-6.203898
O	-3.690836	3.692420	-8.715375
O	-1.329086	3.692420	-6.353489
O	-1.329086	1.330534	-8.715375
As	0.000000	5.022955	-5.022955
As	2.509961	2.511477	-7.534432
La	-1.254980	3.767216	-8.790171
La	3.764941	6.278694	-6.278694
La	6.274902	3.767216	-6.278694
La	1.254980	6.278694	-8.790171
O	3.839047	3.842012	-6.203898
O	-1.180875	6.203898	-8.864967
O	1.180875	3.842012	-8.864967
O	1.329086	6.353489	-6.353489
O	6.200796	6.203898	-6.203898
O	1.329086	8.715375	-8.715375
O	3.690836	8.715375	-6.353489
O	3.690836	6.353489	-8.715375
As	5.019921	-5.022955	0.000000
As	7.529882	-7.534432	-2.511477
La	3.764941	-6.278694	-3.767216
La	8.784863	-3.767216	-1.255739
La	11.294823	-6.278694	-1.255739
La	6.274902	-3.767216	-3.767216
O	8.858968	-6.203898	-1.180943
O	3.839047	-3.842012	-3.842012
O	6.200796	-6.203898	-3.842012
O	6.349007	-3.692420	-1.330534
O	11.220718	-3.842012	-1.180943
O	6.349007	-1.330534	-3.692420
O	8.710757	-1.330534	-1.330534
O	8.710757	-3.692420	-3.692420
As	10.039843	0.000000	0.000000
As	12.549804	-2.511477	-2.511477
La	8.784863	-1.255739	-3.767216
La	13.804784	1.255739	-1.255739
La	16.314745	-1.255739	-1.255739
La	11.294823	1.255739	-3.767216
O	13.878890	-1.180943	-1.180943
O	8.858968	1.180943	-3.842012
O	11.220718	-1.180943	-3.842012
O	11.368929	1.330534	-1.330534
O	16.240639	1.180943	-1.180943
O	11.368929	3.692420	-3.692420
O	13.730679	3.692420	-1.330534
O	13.730679	1.330534	-3.692420
As	0.000000	-5.022955	-5.022955
As	2.509961	-7.534432	-7.534432
La	-1.254980	-6.278694	-8.790171
La	3.764941	-3.767216	-6.278694
La	6.274902	-6.278694	-6.278694
La	1.254980	-3.767216	-8.790171
O	3.839047	-6.203898	-6.203898
O	-1.180875	-3.842012	-8.864967
O	1.180875	-6.203898	-8.864967
O	1.329086	-3.692420	-6.353489
O	6.200796	-3.842012	-6.203898
O	1.329086	-1.330534	-8.715375
O	3.690836	-1.330534	-6.353489
O	3.690836	-3.692420	-8.715375
As	5.019921	0.000000	-5.022955
As	7.529882	-2.511477	-7.534432
La	3.764941	-1.255739	-8.790171
La	8.784863	1.255739	-6.278694
La	11.294823	-1.255739	-6.278694
La	6.274902	1.255739	-8.790171
O	8.858968	-1.180943	-6.203898
O	3.839047	1.180943	-8.864967
O	6.200796	-1.180943	-8.864967
O	6.349007	1.330534	-6.353489
O	11.220718	1.180943	-6.203898
O	6.349007	3.692420	-8.715375
O	8.710757	3.692420	-6.353489
O	8.710757	1.330534	-8.715375
