40

Pr	0.000000	0.000000	0.000000
Bi	2.222510	2.222510	2.222510
O	2.222510	2.222510	0.000000
O	2.222510	0.000000	2.222510
O	0.000000	2.222510	2.222510
Pr	0.000000	0.000000	4.445029
Bi	2.222510	2.222510	6.667539
O	2.222510	2.222510	4.445029
O	2.222510	0.000000	6.667539
O	0.000000	2.222510	6.667539
Pr	0.000000	4.445029	0.000000
Bi	2.222510	6.667539	2.222510
O	2.222510	6.667539	0.000000
O	2.222510	4.445029	2.222510
O	0.000000	6.667539	2.222510
Pr	0.000000	4.445029	4.445029
Bi	2.222510	6.667539	6.667539
O	2.222510	6.667539	4.445029
O	2.222510	4.445029	6.667539
O	0.000000	6.667539	6.667539
Pr	4.445029	0.000000	0.000000
Bi	6.667539	2.222510	2.222510
O	6.667539	2.222510	0.000000
O	6.667539	0.000000	2.222510
O	4.445029	2.222510	2.222510
Pr	4.445029	0.000000	4.445029
Bi	6.667539	2.222510	6.667539
O	6.667539	2.222510	4.445029
O	6.667539	0.000000	6.667539
O	4.445029	2.222510	6.667539
Pr	4.445029	4.445029	0.000000
Bi	6.667539	6.667539	2.222510
O	6.667539	6.667539	0.000000
O	6.667539	4.445029	2.222510
O	4.445029	6.667539	2.222510
Pr	4.445029	4.445029	4.445029
Bi	6.667539	6.667539	6.667539
O	6.667539	6.667539	4.445029
O	6.667539	4.445029	6.667539
O	4.445029	6.667539	6.667539
