112

Cu	0.000000	0.000000	0.000000
Cu	2.237918	-2.238717	-2.238717
O	1.085564	1.086540	-1.086540
O	-1.152354	1.152177	-3.325257
O	3.323492	-1.152177	-1.152177
O	1.152354	-1.152177	-3.325257
O	1.085564	3.390894	-3.390894
O	3.390272	3.390894	-1.086540
O	3.390272	1.086540	-3.390894
O	5.628190	1.152177	-1.152177
Yb	-1.118964	-1.119364	-3.358081
Yb	5.594800	-1.119364	-1.119364
Yb	1.118964	1.119363	-3.358081
Yb	3.356882	1.119364	-1.119364
Cu	4.475838	4.477437	0.000000
Cu	6.713756	2.238720	-2.238717
O	5.561402	5.563977	-1.086540
O	3.323484	5.629614	-3.325257
O	7.799330	3.325260	-1.152177
O	5.628192	3.325260	-3.325257
O	5.561402	7.868331	-3.390894
O	7.866110	7.868331	-1.086540
O	7.866110	5.563977	-3.390894
O	10.104028	5.629614	-1.152177
Yb	3.356874	3.358074	-3.358081
Yb	10.070638	3.358074	-1.119364
Yb	5.594802	5.596800	-3.358081
Yb	7.832720	5.596801	-1.119364
Cu	-4.475838	0.000000	-4.477437
Cu	-2.237920	-2.238717	-6.716154
O	-3.390274	1.086540	-5.563977
O	-5.628192	1.152177	-7.802694
O	-1.152347	-1.152177	-5.629614
O	-3.323484	-1.152177	-7.802694
O	-3.390274	3.390894	-7.868331
O	-1.085567	3.390894	-5.563977
O	-1.085566	1.086540	-7.868331
O	1.152351	1.152177	-5.629614
Yb	-5.594802	-1.119364	-7.835518
Yb	1.118961	-1.119364	-5.596801
Yb	-3.356874	1.119363	-7.835518
Yb	-1.118957	1.119364	-5.596801
Cu	0.000000	4.477437	-4.477437
Cu	2.237918	2.238720	-6.716154
O	1.085564	5.563977	-5.563977
O	-1.152354	5.629614	-7.802694
O	3.323492	3.325260	-5.629614
O	1.152354	3.325260	-7.802694
O	1.085564	7.868331	-7.868331
O	3.390272	7.868331	-5.563977
O	3.390272	5.563977	-7.868331
O	5.628190	5.629614	-5.629614
Yb	-1.118964	3.358074	-7.835518
Yb	5.594800	3.358074	-5.596801
Yb	1.118964	5.596800	-7.835518
Yb	3.356882	5.596801	-5.596801
Cu	4.475838	-4.477437	0.000000
Cu	6.713756	-6.716154	-2.238717
O	5.561402	-3.390897	-1.086540
O	3.323484	-3.325260	-3.325257
O	7.799330	-5.629614	-1.152177
O	5.628192	-5.629614	-3.325257
O	5.561402	-1.086543	-3.390894
O	7.866110	-1.086543	-1.086540
O	7.866110	-3.390897	-3.390894
O	10.104028	-3.325260	-1.152177
Yb	3.356874	-5.596801	-3.358081
Yb	10.070638	-5.596801	-1.119364
Yb	5.594802	-3.358074	-3.358081
Yb	7.832720	-3.358074	-1.119364
Cu	8.951677	0.000000	0.000000
Cu	11.189595	-2.238717	-2.238717
O	10.037241	1.086540	-1.086540
O	7.799323	1.152177	-3.325257
O	12.275169	-1.152177	-1.152177
O	10.104031	-1.152177	-3.325257
O	10.037241	3.390894	-3.390894
O	12.341949	3.390894	-1.086540
O	12.341949	1.086540	-3.390894
O	14.579866	1.152177	-1.152177
Yb	7.832713	-1.119364	-3.358081
Yb	14.546476	-1.119364	-1.119364
Yb	10.070641	1.119363	-3.358081
Yb	12.308559	1.119364	-1.119364
Cu	0.000000	-4.477437	-4.477437
Cu	2.237918	-6.716154	-6.716154
O	1.085564	-3.390897	-5.563977
O	-1.152354	-3.325260	-7.802694
O	3.323492	-5.629614	-5.629614
O	1.152354	-5.629614	-7.802694
O	1.085564	-1.086543	-7.868331
O	3.390272	-1.086543	-5.563977
O	3.390272	-3.390897	-7.868331
O	5.628190	-3.325260	-5.629614
Yb	-1.118964	-5.596801	-7.835518
Yb	5.594800	-5.596801	-5.596801
Yb	1.118964	-3.358074	-7.835518
Yb	3.356882	-3.358074	-5.596801
Cu	4.475838	0.000000	-4.477437
Cu	6.713756	-2.238717	-6.716154
O	5.561402	1.086540	-5.563977
O	3.323484	1.152177	-7.802694
O	7.799330	-1.152177	-5.629614
O	5.628192	-1.152177	-7.802694
O	5.561402	3.390894	-7.868331
O	7.866110	3.390894	-5.563977
O	7.866110	1.086540	-7.868331
O	10.104028	1.152177	-5.629614
Yb	3.356874	-1.119364	-7.835518
Yb	10.070638	-1.119364	-5.596801
Yb	5.594802	1.119363	-7.835518
Yb	7.832720	1.119364	-5.596801
