112

As	0.000000	0.000000	0.000000
As	2.441976	-2.441125	-2.441125
O	1.190223	1.190008	-1.190008
O	1.251752	-1.251117	-3.631143
O	3.632189	-1.251117	-1.251117
O	-1.251752	1.251117	-3.631143
O	3.693718	3.692242	-1.190008
O	3.693718	1.190008	-3.692242
O	1.190223	3.692242	-3.692242
O	6.135693	1.251117	-1.251117
Pr	-1.220988	-1.220563	-3.661688
Pr	3.662953	1.220563	-1.220563
Pr	1.220988	1.220563	-3.661688
Pr	6.104929	-1.220563	-1.220563
As	4.883944	4.882257	0.000000
As	7.325920	2.441132	-2.441125
O	6.074167	6.072265	-1.190008
O	6.135696	3.631140	-3.631143
O	8.516133	3.631140	-1.251117
O	3.632192	6.133374	-3.631143
O	8.577662	8.574499	-1.190008
O	8.577662	6.072265	-3.692242
O	6.074167	8.574499	-3.692242
O	11.019637	6.133374	-1.251117
Pr	3.662956	3.661694	-3.661688
Pr	8.546897	6.102819	-1.220563
Pr	6.104932	6.102820	-3.661688
Pr	10.988873	3.661694	-1.220563
As	-4.883944	0.000000	-4.882257
As	-2.441968	-2.441125	-7.323382
O	-3.693721	1.190008	-6.072265
O	-3.632192	-1.251117	-8.513400
O	-1.251755	-1.251117	-6.133374
O	-6.135696	1.251117	-8.513400
O	-1.190226	3.692242	-6.072265
O	-1.190226	1.190008	-8.574499
O	-3.693721	3.692242	-8.574499
O	1.251749	1.251117	-6.133374
Pr	-6.104932	-1.220563	-8.543945
Pr	-1.220991	1.220563	-6.102819
Pr	-3.662956	1.220563	-8.543945
Pr	1.220985	-1.220563	-6.102819
As	0.000000	4.882257	-4.882257
As	2.441976	2.441132	-7.323382
O	1.190223	6.072265	-6.072265
O	1.251752	3.631140	-8.513400
O	3.632189	3.631140	-6.133374
O	-1.251752	6.133374	-8.513400
O	3.693718	8.574499	-6.072265
O	3.693718	6.072265	-8.574499
O	1.190223	8.574499	-8.574499
O	6.135693	6.133374	-6.133374
Pr	-1.220988	3.661694	-8.543945
Pr	3.662953	6.102819	-6.102819
Pr	1.220988	6.102820	-8.543945
Pr	6.104929	3.661694	-6.102819
As	4.883944	-4.882257	0.000000
As	7.325920	-7.323382	-2.441125
O	6.074167	-3.692249	-1.190008
O	6.135696	-6.133374	-3.631143
O	8.516133	-6.133374	-1.251117
O	3.632192	-3.631140	-3.631143
O	8.577662	-1.190015	-1.190008
O	8.577662	-3.692249	-3.692242
O	6.074167	-1.190015	-3.692242
O	11.019637	-3.631140	-1.251117
Pr	3.662956	-6.102819	-3.661688
Pr	8.546897	-3.661694	-1.220563
Pr	6.104932	-3.661694	-3.661688
Pr	10.988873	-6.102819	-1.220563
As	9.767888	0.000000	0.000000
As	12.209864	-2.441125	-2.441125
O	10.958111	1.190008	-1.190008
O	11.019640	-1.251117	-3.631143
O	13.400077	-1.251117	-1.251117
O	8.516136	1.251117	-3.631143
O	13.461606	3.692242	-1.190008
O	13.461606	1.190008	-3.692242
O	10.958111	3.692242	-3.692242
O	15.903581	1.251117	-1.251117
Pr	8.546900	-1.220563	-3.661688
Pr	13.430841	1.220563	-1.220563
Pr	10.988876	1.220563	-3.661688
Pr	15.872817	-1.220563	-1.220563
As	0.000000	-4.882257	-4.882257
As	2.441976	-7.323382	-7.323382
O	1.190223	-3.692249	-6.072265
O	1.251752	-6.133374	-8.513400
O	3.632189	-6.133374	-6.133374
O	-1.251752	-3.631140	-8.513400
O	3.693718	-1.190015	-6.072265
O	3.693718	-3.692249	-8.574499
O	1.190223	-1.190015	-8.574499
O	6.135693	-3.631140	-6.133374
Pr	-1.220988	-6.102819	-8.543945
Pr	3.662953	-3.661694	-6.102819
Pr	1.220988	-3.661694	-8.543945
Pr	6.104929	-6.102819	-6.102819
As	4.883944	0.000000	-4.882257
As	7.325920	-2.441125	-7.323382
O	6.074167	1.190008	-6.072265
O	6.135696	-1.251117	-8.513400
O	8.516133	-1.251117	-6.133374
O	3.632192	1.251117	-8.513400
O	8.577662	3.692242	-6.072265
O	8.577662	1.190008	-8.574499
O	6.074167	3.692242	-8.574499
O	11.019637	1.251117	-6.133374
Pr	3.662956	-1.220563	-8.543945
Pr	8.546897	1.220563	-6.102819
Pr	6.104932	1.220563	-8.543945
Pr	10.988873	-1.220563	-6.102819
