112

Al	0.000000	0.000000	0.000000
Al	2.069011	-2.069011	-2.069011
Fe	-1.034505	-1.034505	-3.103516
Fe	3.103516	1.034505	-1.034505
Fe	5.172527	-1.034505	-1.034505
Fe	1.034505	1.034505	-3.103516
O	3.101059	-1.036962	-1.036962
O	-1.036962	1.036962	-3.101059
O	1.036962	-1.036962	-3.101059
O	1.032049	1.032049	-1.032049
O	5.174984	1.036962	-1.036962
O	3.105973	3.105973	-1.032049
O	1.032049	3.105973	-3.105973
O	3.105973	1.032049	-3.105973
Al	4.138022	4.138022	0.000000
Al	6.207033	2.069011	-2.069011
Fe	3.103516	3.103516	-3.103516
Fe	7.241538	5.172527	-1.034505
Fe	9.310549	3.103516	-1.034505
Fe	5.172527	5.172527	-3.103516
O	7.239081	3.101059	-1.036962
O	3.101059	5.174984	-3.101059
O	5.174984	3.101059	-3.101059
O	5.170070	5.170070	-1.032049
O	9.313006	5.174984	-1.036962
O	7.243995	7.243995	-1.032049
O	5.170070	7.243995	-3.105973
O	7.243995	5.170070	-3.105973
Al	-4.138022	0.000000	-4.138022
Al	-2.069011	-2.069011	-6.207033
Fe	-5.172527	-1.034505	-7.241538
Fe	-1.034505	1.034505	-5.172527
Fe	1.034505	-1.034505	-5.172527
Fe	-3.103516	1.034505	-7.241538
O	-1.036962	-1.036962	-5.174984
O	-5.174984	1.036962	-7.239081
O	-3.101059	-1.036962	-7.239081
O	-3.105973	1.032049	-5.170070
O	1.036962	1.036962	-5.174984
O	-1.032049	3.105973	-5.170070
O	-3.105973	3.105973	-7.243995
O	-1.032049	1.032049	-7.243995
Al	0.000000	4.138022	-4.138022
Al	2.069011	2.069011	-6.207033
Fe	-1.034505	3.103516	-7.241538
Fe	3.103516	5.172527	-5.172527
Fe	5.172527	3.103516	-5.172527
Fe	1.034505	5.172527	-7.241538
O	3.101059	3.101059	-5.174984
O	-1.036962	5.174984	-7.239081
O	1.036962	3.101059	-7.239081
O	1.032049	5.170070	-5.170070
O	5.174984	5.174984	-5.174984
O	3.105973	7.243995	-5.170070
O	1.032049	7.243995	-7.243995
O	3.105973	5.170070	-7.243995
Al	4.138022	-4.138022	0.000000
Al	6.207033	-6.207033	-2.069011
Fe	3.103516	-5.172527	-3.103516
Fe	7.241538	-3.103516	-1.034505
Fe	9.310549	-5.172527	-1.034505
Fe	5.172527	-3.103516	-3.103516
O	7.239081	-5.174984	-1.036962
O	3.101059	-3.101059	-3.101059
O	5.174984	-5.174984	-3.101059
O	5.170070	-3.105973	-1.032049
O	9.313006	-3.101059	-1.036962
O	7.243995	-1.032049	-1.032049
O	5.170070	-1.032049	-3.105973
O	7.243995	-3.105973	-3.105973
Al	8.276044	0.000000	0.000000
Al	10.345054	-2.069011	-2.069011
Fe	7.241538	-1.034505	-3.103516
Fe	11.379560	1.034505	-1.034505
Fe	13.448571	-1.034505	-1.034505
Fe	9.310549	1.034505	-3.103516
O	11.377103	-1.036962	-1.036962
O	7.239081	1.036962	-3.101059
O	9.313006	-1.036962	-3.101059
O	9.308092	1.032049	-1.032049
O	13.451028	1.036962	-1.036962
O	11.382017	3.105973	-1.032049
O	9.308092	3.105973	-3.105973
O	11.382017	1.032049	-3.105973
Al	0.000000	-4.138022	-4.138022
Al	2.069011	-6.207033	-6.207033
Fe	-1.034505	-5.172527	-7.241538
Fe	3.103516	-3.103516	-5.172527
Fe	5.172527	-5.172527	-5.172527
Fe	1.034505	-3.103516	-7.241538
O	3.101059	-5.174984	-5.174984
O	-1.036962	-3.101059	-7.239081
O	1.036962	-5.174984	-7.239081
O	1.032049	-3.105973	-5.170070
O	5.174984	-3.101059	-5.174984
O	3.105973	-1.032049	-5.170070
O	1.032049	-1.032049	-7.243995
O	3.105973	-3.105973	-7.243995
Al	4.138022	0.000000	-4.138022
Al	6.207033	-2.069011	-6.207033
Fe	3.103516	-1.034505	-7.241538
Fe	7.241538	1.034505	-5.172527
Fe	9.310549	-1.034505	-5.172527
Fe	5.172527	1.034505	-7.241538
O	7.239081	-1.036962	-5.174984
O	3.101059	1.036962	-7.239081
O	5.174984	-1.036962	-7.239081
O	5.170070	1.032049	-5.170070
O	9.313006	1.036962	-5.174984
O	7.243995	3.105973	-5.170070
O	5.170070	3.105973	-7.243995
O	7.243995	1.032049	-7.243995
