40

O	2.186980	2.186980	0.000000
O	0.000000	2.186980	2.186980
O	2.186980	0.000000	2.186980
Pt	0.000000	0.000000	0.000000
Sm_3	2.186980	2.186980	2.186980
O	2.186980	2.186980	4.373968
O	0.000000	2.186980	6.560948
O	2.186980	0.000000	6.560948
Pt	0.000000	0.000000	4.373968
Sm_3	2.186980	2.186980	6.560948
O	2.186980	6.560948	0.000000
O	0.000000	6.560948	2.186980
O	2.186980	4.373968	2.186980
Pt	0.000000	4.373968	0.000000
Sm_3	2.186980	6.560948	2.186980
O	2.186980	6.560948	4.373968
O	0.000000	6.560948	6.560948
O	2.186980	4.373968	6.560948
Pt	0.000000	4.373968	4.373968
Sm_3	2.186980	6.560948	6.560948
O	6.560948	2.186980	0.000000
O	4.373968	2.186980	2.186980
O	6.560948	0.000000	2.186980
Pt	4.373968	0.000000	0.000000
Sm_3	6.560948	2.186980	2.186980
O	6.560948	2.186980	4.373968
O	4.373968	2.186980	6.560948
O	6.560948	0.000000	6.560948
Pt	4.373968	0.000000	4.373968
Sm_3	6.560948	2.186980	6.560948
O	6.560948	6.560948	0.000000
O	4.373968	6.560948	2.186980
O	6.560948	4.373968	2.186980
Pt	4.373968	4.373968	0.000000
Sm_3	6.560948	6.560948	2.186980
O	6.560948	6.560948	4.373968
O	4.373968	6.560948	6.560948
O	6.560948	4.373968	6.560948
Pt	4.373968	4.373968	4.373968
Sm_3	6.560948	6.560948	6.560948
