112

Eu	0.000000	0.000000	0.000000
Eu	2.259410	-2.260593	-2.260593
O	-0.941100	0.940575	-3.580611
O	3.577731	-0.940575	-0.940575
O	0.941100	-0.940575	-3.580611
O	1.318321	1.320018	-1.320018
O	5.459930	0.940575	-0.940575
O	1.318321	3.201168	-3.201168
O	3.200510	3.201168	-1.320018
O	3.200510	1.320018	-3.201168
Os	-1.129710	-1.130296	-3.390889
Os	3.389121	1.130296	-1.130296
Os	1.129710	1.130296	-3.390889
Os	5.648541	-1.130296	-1.130296
Eu	4.518830	4.521189	0.000000
Eu	6.778241	2.260596	-2.260593
O	3.577731	5.461764	-3.580611
O	8.096562	3.580614	-0.940575
O	5.459930	3.580614	-3.580611
O	5.837151	5.841207	-1.320018
O	9.978761	5.461764	-0.940575
O	5.837151	7.722357	-3.201168
O	7.719340	7.722357	-1.320018
O	7.719340	5.841207	-3.201168
Os	3.389120	3.390893	-3.390889
Os	7.907951	5.651486	-1.130296
Os	5.648541	5.651486	-3.390889
Os	10.167371	3.390893	-1.130296
Eu	-4.518830	0.000000	-4.521189
Eu	-2.259420	-2.260593	-6.781782
O	-5.459930	0.940575	-8.101800
O	-0.941099	-0.940575	-5.461764
O	-3.577731	-0.940575	-8.101800
O	-3.200509	1.320018	-5.841207
O	0.941100	0.940575	-5.461764
O	-3.200509	3.201168	-7.722357
O	-1.318320	3.201168	-5.841207
O	-1.318320	1.320018	-7.722357
Os	-5.648541	-1.130296	-7.912078
Os	-1.129710	1.130296	-5.651486
Os	-3.389120	1.130296	-7.912078
Os	1.129711	-1.130296	-5.651486
Eu	0.000000	4.521189	-4.521189
Eu	2.259410	2.260596	-6.781782
O	-0.941100	5.461764	-8.101800
O	3.577731	3.580614	-5.461764
O	0.941100	3.580614	-8.101800
O	1.318321	5.841207	-5.841207
O	5.459930	5.461764	-5.461764
O	1.318321	7.722357	-7.722357
O	3.200510	7.722357	-5.841207
O	3.200510	5.841207	-7.722357
Os	-1.129710	3.390893	-7.912078
Os	3.389121	5.651486	-5.651486
Os	1.129710	5.651486	-7.912078
Os	5.648541	3.390893	-5.651486
Eu	4.518830	-4.521189	0.000000
Eu	6.778241	-6.781782	-2.260593
O	3.577731	-3.580614	-3.580611
O	8.096562	-5.461764	-0.940575
O	5.459930	-5.461764	-3.580611
O	5.837151	-3.201171	-1.320018
O	9.978761	-3.580614	-0.940575
O	5.837151	-1.320021	-3.201168
O	7.719340	-1.320021	-1.320018
O	7.719340	-3.201171	-3.201168
Os	3.389120	-5.651485	-3.390889
Os	7.907951	-3.390893	-1.130296
Os	5.648541	-3.390893	-3.390889
Os	10.167371	-5.651485	-1.130296
Eu	9.037661	0.000000	0.000000
Eu	11.297071	-2.260593	-2.260593
O	8.096561	0.940575	-3.580611
O	12.615392	-0.940575	-0.940575
O	9.978760	-0.940575	-3.580611
O	10.355982	1.320018	-1.320018
O	14.497591	0.940575	-0.940575
O	10.355982	3.201168	-3.201168
O	12.238171	3.201168	-1.320018
O	12.238171	1.320018	-3.201168
Os	7.907950	-1.130296	-3.390889
Os	12.426781	1.130296	-1.130296
Os	10.167371	1.130296	-3.390889
Os	14.686202	-1.130296	-1.130296
Eu	0.000000	-4.521189	-4.521189
Eu	2.259410	-6.781782	-6.781782
O	-0.941100	-3.580614	-8.101800
O	3.577731	-5.461764	-5.461764
O	0.941100	-5.461764	-8.101800
O	1.318321	-3.201171	-5.841207
O	5.459930	-3.580614	-5.461764
O	1.318321	-1.320021	-7.722357
O	3.200510	-1.320021	-5.841207
O	3.200510	-3.201171	-7.722357
Os	-1.129710	-5.651485	-7.912078
Os	3.389121	-3.390893	-5.651486
Os	1.129710	-3.390893	-7.912078
Os	5.648541	-5.651485	-5.651486
Eu	4.518830	0.000000	-4.521189
Eu	6.778241	-2.260593	-6.781782
O	3.577731	0.940575	-8.101800
O	8.096562	-0.940575	-5.461764
O	5.459930	-0.940575	-8.101800
O	5.837151	1.320018	-5.841207
O	9.978761	0.940575	-5.461764
O	5.837151	3.201168	-7.722357
O	7.719340	3.201168	-5.841207
O	7.719340	1.320018	-7.722357
Os	3.389120	-1.130296	-7.912078
Os	7.907951	1.130296	-5.651486
Os	5.648541	1.130296	-7.912078
Os	10.167371	-1.130296	-5.651486
