40

O	2.172846	2.172846	0.000000
O	2.172846	0.000000	2.172846
O	0.000000	2.172846	2.172846
U	2.172846	2.172846	2.172846
W	0.000000	0.000000	0.000000
O	2.172846	2.172846	4.345692
O	2.172846	0.000000	6.518539
O	0.000000	2.172846	6.518539
U	2.172846	2.172846	6.518539
W	0.000000	0.000000	4.345692
O	2.172846	6.518539	0.000000
O	2.172846	4.345692	2.172846
O	0.000000	6.518539	2.172846
U	2.172846	6.518539	2.172846
W	0.000000	4.345692	0.000000
O	2.172846	6.518539	4.345692
O	2.172846	4.345692	6.518539
O	0.000000	6.518539	6.518539
U	2.172846	6.518539	6.518539
W	0.000000	4.345692	4.345692
O	6.518539	2.172846	0.000000
O	6.518539	0.000000	2.172846
O	4.345692	2.172846	2.172846
U	6.518539	2.172846	2.172846
W	4.345692	0.000000	0.000000
O	6.518539	2.172846	4.345692
O	6.518539	0.000000	6.518539
O	4.345692	2.172846	6.518539
U	6.518539	2.172846	6.518539
W	4.345692	0.000000	4.345692
O	6.518539	6.518539	0.000000
O	6.518539	4.345692	2.172846
O	4.345692	6.518539	2.172846
U	6.518539	6.518539	2.172846
W	4.345692	4.345692	0.000000
O	6.518539	6.518539	4.345692
O	6.518539	4.345692	6.518539
O	4.345692	6.518539	6.518539
U	6.518539	6.518539	6.518539
W	4.345692	4.345692	4.345692
