40

Ca	2.147359	2.147359	2.147359
Cu	0.000000	0.000000	0.000000
O	2.147359	2.147359	0.000000
O	2.147359	0.000000	2.147359
O	0.000000	2.147359	2.147359
Ca	2.147359	2.147359	6.442069
Cu	0.000000	0.000000	4.294710
O	2.147359	2.147359	4.294710
O	2.147359	0.000000	6.442069
O	0.000000	2.147359	6.442069
Ca	2.147359	6.442069	2.147359
Cu	0.000000	4.294710	0.000000
O	2.147359	6.442069	0.000000
O	2.147359	4.294710	2.147359
O	0.000000	6.442069	2.147359
Ca	2.147359	6.442069	6.442069
Cu	0.000000	4.294710	4.294710
O	2.147359	6.442069	4.294710
O	2.147359	4.294710	6.442069
O	0.000000	6.442069	6.442069
Ca	6.442069	2.147359	2.147359
Cu	4.294710	0.000000	0.000000
O	6.442069	2.147359	0.000000
O	6.442069	0.000000	2.147359
O	4.294710	2.147359	2.147359
Ca	6.442069	2.147359	6.442069
Cu	4.294710	0.000000	4.294710
O	6.442069	2.147359	4.294710
O	6.442069	0.000000	6.442069
O	4.294710	2.147359	6.442069
Ca	6.442069	6.442069	2.147359
Cu	4.294710	4.294710	0.000000
O	6.442069	6.442069	0.000000
O	6.442069	4.294710	2.147359
O	4.294710	6.442069	2.147359
Ca	6.442069	6.442069	6.442069
Cu	4.294710	4.294710	4.294710
O	6.442069	6.442069	4.294710
O	6.442069	4.294710	6.442069
O	4.294710	6.442069	6.442069
