40

Ca	2.129391	2.129391	2.129391
Cu	0.000000	0.000000	0.000000
O	2.129391	2.129391	0.000000
O	2.129391	0.000000	2.129391
O	0.000000	2.129391	2.129391
Ca	2.129391	2.129391	6.388165
Cu	0.000000	0.000000	4.258773
O	2.129391	2.129391	4.258773
O	2.129391	0.000000	6.388165
O	0.000000	2.129391	6.388165
Ca	2.129391	6.388165	2.129391
Cu	0.000000	4.258773	0.000000
O	2.129391	6.388165	0.000000
O	2.129391	4.258773	2.129391
O	0.000000	6.388165	2.129391
Ca	2.129391	6.388165	6.388165
Cu	0.000000	4.258773	4.258773
O	2.129391	6.388165	4.258773
O	2.129391	4.258773	6.388165
O	0.000000	6.388165	6.388165
Ca	6.388165	2.129391	2.129391
Cu	4.258773	0.000000	0.000000
O	6.388165	2.129391	0.000000
O	6.388165	0.000000	2.129391
O	4.258773	2.129391	2.129391
Ca	6.388165	2.129391	6.388165
Cu	4.258773	0.000000	4.258773
O	6.388165	2.129391	4.258773
O	6.388165	0.000000	6.388165
O	4.258773	2.129391	6.388165
Ca	6.388165	6.388165	2.129391
Cu	4.258773	4.258773	0.000000
O	6.388165	6.388165	0.000000
O	6.388165	4.258773	2.129391
O	4.258773	6.388165	2.129391
Ca	6.388165	6.388165	6.388165
Cu	4.258773	4.258773	4.258773
O	6.388165	6.388165	4.258773
O	6.388165	4.258773	6.388165
O	4.258773	6.388165	6.388165
