40

Ca	0.000000	0.000000	0.000000
Cu	1.871890	1.871890	1.871890
O	1.871890	1.871890	0.000000
O	0.000000	1.871890	1.871890
O	1.871890	0.000000	1.871890
Ca	0.000000	0.000000	3.743770
Cu	1.871890	1.871890	5.615660
O	1.871890	1.871890	3.743770
O	0.000000	1.871890	5.615660
O	1.871890	0.000000	5.615660
Ca	0.000000	3.743770	0.000000
Cu	1.871890	5.615660	1.871890
O	1.871890	5.615660	0.000000
O	0.000000	5.615660	1.871890
O	1.871890	3.743770	1.871890
Ca	0.000000	3.743770	3.743770
Cu	1.871890	5.615660	5.615660
O	1.871890	5.615660	3.743770
O	0.000000	5.615660	5.615660
O	1.871890	3.743770	5.615660
Ca	3.743770	0.000000	0.000000
Cu	5.615660	1.871890	1.871890
O	5.615660	1.871890	0.000000
O	3.743770	1.871890	1.871890
O	5.615660	0.000000	1.871890
Ca	3.743770	0.000000	3.743770
Cu	5.615660	1.871890	5.615660
O	5.615660	1.871890	3.743770
O	3.743770	1.871890	5.615660
O	5.615660	0.000000	5.615660
Ca	3.743770	3.743770	0.000000
Cu	5.615660	5.615660	1.871890
O	5.615660	5.615660	0.000000
O	3.743770	5.615660	1.871890
O	5.615660	3.743770	1.871890
Ca	3.743770	3.743770	3.743770
Cu	5.615660	5.615660	5.615660
O	5.615660	5.615660	3.743770
O	3.743770	5.615660	5.615660
O	5.615660	3.743770	5.615660
