40

Li	1.789948	1.789948	1.789948
O	0.000000	1.789948	1.789948
O	1.789948	0.000000	1.789948
O	1.789948	1.789948	0.000000
Pt	0.000000	0.000000	0.000000
Li	1.789948	1.789948	5.369843
O	0.000000	1.789948	5.369843
O	1.789948	0.000000	5.369843
O	1.789948	1.789948	3.579895
Pt	0.000000	0.000000	3.579895
Li	1.789948	5.369843	1.789948
O	0.000000	5.369843	1.789948
O	1.789948	3.579895	1.789948
O	1.789948	5.369843	0.000000
Pt	0.000000	3.579895	0.000000
Li	1.789948	5.369843	5.369843
O	0.000000	5.369843	5.369843
O	1.789948	3.579895	5.369843
O	1.789948	5.369843	3.579895
Pt	0.000000	3.579895	3.579895
Li	5.369843	1.789948	1.789948
O	3.579895	1.789948	1.789948
O	5.369843	0.000000	1.789948
O	5.369843	1.789948	0.000000
Pt	3.579895	0.000000	0.000000
Li	5.369843	1.789948	5.369843
O	3.579895	1.789948	5.369843
O	5.369843	0.000000	5.369843
O	5.369843	1.789948	3.579895
Pt	3.579895	0.000000	3.579895
Li	5.369843	5.369843	1.789948
O	3.579895	5.369843	1.789948
O	5.369843	3.579895	1.789948
O	5.369843	5.369843	0.000000
Pt	3.579895	3.579895	0.000000
Li	5.369843	5.369843	5.369843
O	3.579895	5.369843	5.369843
O	5.369843	3.579895	5.369843
O	5.369843	5.369843	3.579895
Pt	3.579895	3.579895	3.579895
