40

Ba	2.226250	2.226250	2.226250
O	2.226250	0.000000	0.000000
O	0.000000	2.226250	0.000000
O	0.000000	0.000000	2.226250
Pa	-0.015000	0.000000	0.000000
Ba	2.226250	2.226250	6.678751
O	2.226250	0.000000	4.452500
O	0.000000	2.226250	4.452500
O	0.000000	0.000000	6.678751
Pa	-0.015000	0.000000	4.452500
Ba	2.226250	6.678751	2.226250
O	2.226250	4.452500	0.000000
O	0.000000	6.678751	0.000000
O	0.000000	4.452500	2.226250
Pa	-0.015000	4.452500	0.000000
Ba	2.226250	6.678751	6.678751
O	2.226250	4.452500	4.452500
O	0.000000	6.678751	4.452500
O	0.000000	4.452500	6.678751
Pa	-0.015000	4.452500	4.452500
Ba	6.678751	2.226250	2.226250
O	6.678751	0.000000	0.000000
O	4.452500	2.226250	0.000000
O	4.452500	0.000000	2.226250
Pa	4.437501	0.000000	0.000000
Ba	6.678751	2.226250	6.678751
O	6.678751	0.000000	4.452500
O	4.452500	2.226250	4.452500
O	4.452500	0.000000	6.678751
Pa	4.437501	0.000000	4.452500
Ba	6.678751	6.678751	2.226250
O	6.678751	4.452500	0.000000
O	4.452500	6.678751	0.000000
O	4.452500	4.452500	2.226250
Pa	4.437501	4.452500	0.000000
Ba	6.678751	6.678751	6.678751
O	6.678751	4.452500	4.452500
O	4.452500	6.678751	4.452500
O	4.452500	4.452500	6.678751
Pa	4.437501	4.452500	4.452500
