112

Au	0.000000	0.000000	0.000000
Au	2.691773	-2.698856	-2.698856
Cs	-1.345887	-1.349433	-4.048299
Cs	6.729433	-1.349433	-1.349433
Cs	4.037660	1.349433	-1.349433
Cs	1.345887	1.349433	-4.048299
O	1.110245	1.120203	-1.120203
O	-1.581528	1.578653	-3.819059
O	3.802018	-1.578653	-1.578653
O	1.581528	-1.578653	-3.819059
O	1.110245	4.277519	-4.277519
O	4.273301	4.277519	-1.120203
O	4.273301	1.120203	-4.277519
O	6.965074	1.578653	-1.578653
Au	5.383547	5.397723	0.000000
Au	8.075320	2.698867	-2.698856
Cs	4.037661	4.048290	-4.048299
Cs	12.112980	4.048290	-1.349433
Cs	9.421207	6.747156	-1.349433
Cs	6.729434	6.747156	-4.048299
O	6.493792	6.517926	-1.120203
O	3.802019	6.976376	-3.819059
O	9.185565	3.819070	-1.578653
O	6.965075	3.819070	-3.819059
O	6.493792	9.675242	-4.277519
O	9.656848	9.675242	-1.120203
O	9.656848	6.517926	-4.277519
O	12.348621	6.976376	-1.578653
Au	-5.383547	0.000000	-5.397723
Au	-2.691774	-2.698856	-8.096579
Cs	-6.729434	-1.349433	-9.446022
Cs	1.345886	-1.349433	-6.747156
Cs	-1.345888	1.349433	-6.747156
Cs	-4.037661	1.349433	-9.446022
O	-4.273302	1.120203	-6.517926
O	-6.965075	1.578653	-9.216782
O	-1.581529	-1.578653	-6.976376
O	-3.802019	-1.578653	-9.216782
O	-4.273302	4.277519	-9.675242
O	-1.110246	4.277519	-6.517926
O	-1.110246	1.120203	-9.675242
O	1.581527	1.578653	-6.976376
Au	0.000000	5.397723	-5.397723
Au	2.691773	2.698867	-8.096579
Cs	-1.345887	4.048290	-9.446022
Cs	6.729433	4.048290	-6.747156
Cs	4.037660	6.747156	-6.747156
Cs	1.345887	6.747156	-9.446022
O	1.110245	6.517926	-6.517926
O	-1.581528	6.976376	-9.216782
O	3.802018	3.819070	-6.976376
O	1.581528	3.819070	-9.216782
O	1.110245	9.675242	-9.675242
O	4.273301	9.675242	-6.517926
O	4.273301	6.517926	-9.675242
O	6.965074	6.976376	-6.976376
Au	5.383547	-5.397723	0.000000
Au	8.075320	-8.096579	-2.698856
Cs	4.037661	-6.747156	-4.048299
Cs	12.112980	-6.747156	-1.349433
Cs	9.421207	-4.048290	-1.349433
Cs	6.729434	-4.048290	-4.048299
O	6.493792	-4.277520	-1.120203
O	3.802019	-3.819070	-3.819059
O	9.185565	-6.976376	-1.578653
O	6.965075	-6.976376	-3.819059
O	6.493792	-1.120204	-4.277519
O	9.656848	-1.120204	-1.120203
O	9.656848	-4.277520	-4.277519
O	12.348621	-3.819070	-1.578653
Au	10.767094	0.000000	0.000000
Au	13.458867	-2.698856	-2.698856
Cs	9.421208	-1.349433	-4.048299
Cs	17.496527	-1.349433	-1.349433
Cs	14.804754	1.349433	-1.349433
Cs	12.112981	1.349433	-4.048299
O	11.877339	1.120203	-1.120203
O	9.185566	1.578653	-3.819059
O	14.569112	-1.578653	-1.578653
O	12.348622	-1.578653	-3.819059
O	11.877339	4.277519	-4.277519
O	15.040395	4.277519	-1.120203
O	15.040395	1.120203	-4.277519
O	17.732168	1.578653	-1.578653
Au	0.000000	-5.397723	-5.397723
Au	2.691773	-8.096579	-8.096579
Cs	-1.345887	-6.747156	-9.446022
Cs	6.729433	-6.747156	-6.747156
Cs	4.037660	-4.048290	-6.747156
Cs	1.345887	-4.048290	-9.446022
O	1.110245	-4.277520	-6.517926
O	-1.581528	-3.819070	-9.216782
O	3.802018	-6.976376	-6.976376
O	1.581528	-6.976376	-9.216782
O	1.110245	-1.120204	-9.675242
O	4.273301	-1.120204	-6.517926
O	4.273301	-4.277520	-9.675242
O	6.965074	-3.819070	-6.976376
Au	5.383547	0.000000	-5.397723
Au	8.075320	-2.698856	-8.096579
Cs	4.037661	-1.349433	-9.446022
Cs	12.112980	-1.349433	-6.747156
Cs	9.421207	1.349433	-6.747156
Cs	6.729434	1.349433	-9.446022
O	6.493792	1.120203	-6.517926
O	3.802019	1.578653	-9.216782
O	9.185565	-1.578653	-6.976376
O	6.965075	-1.578653	-9.216782
O	6.493792	4.277519	-9.675242
O	9.656848	4.277519	-6.517926
O	9.656848	1.120203	-9.675242
O	12.348621	1.578653	-6.976376
