40

Mo	1.966020	1.966020	1.966020
O	1.966020	1.966020	0.000000
O	0.000000	1.966020	1.966020
O	1.966020	0.000000	1.966020
Re	0.000000	0.000000	0.000000
Mo	1.966020	1.966020	5.898061
O	1.966020	1.966020	3.932041
O	0.000000	1.966020	5.898061
O	1.966020	0.000000	5.898061
Re	0.000000	0.000000	3.932041
Mo	1.966020	5.898061	1.966020
O	1.966020	5.898061	0.000000
O	0.000000	5.898061	1.966020
O	1.966020	3.932041	1.966020
Re	0.000000	3.932041	0.000000
Mo	1.966020	5.898061	5.898061
O	1.966020	5.898061	3.932041
O	0.000000	5.898061	5.898061
O	1.966020	3.932041	5.898061
Re	0.000000	3.932041	3.932041
Mo	5.898061	1.966020	1.966020
O	5.898061	1.966020	0.000000
O	3.932041	1.966020	1.966020
O	5.898061	0.000000	1.966020
Re	3.932041	0.000000	0.000000
Mo	5.898061	1.966020	5.898061
O	5.898061	1.966020	3.932041
O	3.932041	1.966020	5.898061
O	5.898061	0.000000	5.898061
Re	3.932041	0.000000	3.932041
Mo	5.898061	5.898061	1.966020
O	5.898061	5.898061	0.000000
O	3.932041	5.898061	1.966020
O	5.898061	3.932041	1.966020
Re	3.932041	3.932041	0.000000
Mo	5.898061	5.898061	5.898061
O	5.898061	5.898061	3.932041
O	3.932041	5.898061	5.898061
O	5.898061	3.932041	5.898061
Re	3.932041	3.932041	3.932041
