112

Au	0.000000	0.000000	0.000000
Au	2.205398	-2.180798	-2.180798
O	3.480321	-0.901322	-0.901322
O	-0.930475	0.901322	-3.460273
O	0.930475	-0.901322	-3.460273
O	1.274923	1.279475	-1.279475
O	5.341271	0.901322	-0.901322
O	1.274923	3.082120	-3.082120
O	3.135873	3.082120	-1.279475
O	3.135873	1.279475	-3.082120
V	-1.102699	-1.090399	-3.271196
V	3.308097	1.090399	-1.090399
V	5.513495	-1.090399	-1.090399
V	1.102699	1.090399	-3.271196
Au	4.410796	4.361595	0.000000
Au	6.616194	2.180798	-2.180798
O	7.891118	3.460273	-0.901322
O	3.480322	5.262917	-3.460273
O	5.341271	3.460273	-3.460273
O	5.685720	5.641071	-1.279475
O	9.752067	5.262917	-0.901322
O	5.685720	7.443715	-3.082120
O	7.546669	7.443715	-1.279475
O	7.546669	5.641071	-3.082120
V	3.308097	3.271196	-3.271196
V	7.718893	5.451994	-1.090399
V	9.924291	3.271196	-1.090399
V	5.513495	5.451994	-3.271196
Au	-4.410796	0.000000	-4.361595
Au	-2.205398	-2.180798	-6.542393
O	-0.930475	-0.901322	-5.262917
O	-5.341271	0.901322	-7.821868
O	-3.480321	-0.901322	-7.821868
O	-3.135873	1.279475	-5.641071
O	0.930475	0.901322	-5.262917
O	-3.135873	3.082120	-7.443715
O	-1.274923	3.082120	-5.641071
O	-1.274923	1.279475	-7.443715
V	-5.513495	-1.090399	-7.632792
V	-1.102699	1.090399	-5.451994
V	1.102699	-1.090399	-5.451994
V	-3.308097	1.090399	-7.632792
Au	0.000000	4.361595	-4.361595
Au	2.205398	2.180798	-6.542393
O	3.480321	3.460273	-5.262917
O	-0.930475	5.262917	-7.821868
O	0.930475	3.460273	-7.821868
O	1.274923	5.641071	-5.641071
O	5.341271	5.262917	-5.262917
O	1.274923	7.443715	-7.443715
O	3.135873	7.443715	-5.641071
O	3.135873	5.641071	-7.443715
V	-1.102699	3.271196	-7.632792
V	3.308097	5.451994	-5.451994
V	5.513495	3.271196	-5.451994
V	1.102699	5.451994	-7.632792
Au	4.410796	-4.361595	0.000000
Au	6.616194	-6.542393	-2.180798
O	7.891118	-5.262917	-0.901322
O	3.480322	-3.460273	-3.460273
O	5.341271	-5.262917	-3.460273
O	5.685720	-3.082120	-1.279475
O	9.752067	-3.460273	-0.901322
O	5.685720	-1.279475	-3.082120
O	7.546669	-1.279475	-1.279475
O	7.546669	-3.082120	-3.082120
V	3.308097	-5.451994	-3.271196
V	7.718893	-3.271196	-1.090399
V	9.924291	-5.451994	-1.090399
V	5.513495	-3.271196	-3.271196
Au	8.821592	0.000000	0.000000
Au	11.026990	-2.180798	-2.180798
O	12.301914	-0.901322	-0.901322
O	7.891118	0.901322	-3.460273
O	9.752067	-0.901322	-3.460273
O	10.096516	1.279475	-1.279475
O	14.162863	0.901322	-0.901322
O	10.096516	3.082120	-3.082120
O	11.957465	3.082120	-1.279475
O	11.957465	1.279475	-3.082120
V	7.718893	-1.090399	-3.271196
V	12.129689	1.090399	-1.090399
V	14.335087	-1.090399	-1.090399
V	9.924291	1.090399	-3.271196
Au	0.000000	-4.361595	-4.361595
Au	2.205398	-6.542393	-6.542393
O	3.480321	-5.262917	-5.262917
O	-0.930475	-3.460273	-7.821868
O	0.930475	-5.262917	-7.821868
O	1.274923	-3.082120	-5.641071
O	5.341271	-3.460273	-5.262917
O	1.274923	-1.279475	-7.443715
O	3.135873	-1.279475	-5.641071
O	3.135873	-3.082120	-7.443715
V	-1.102699	-5.451994	-7.632792
V	3.308097	-3.271196	-5.451994
V	5.513495	-5.451994	-5.451994
V	1.102699	-3.271196	-7.632792
Au	4.410796	0.000000	-4.361595
Au	6.616194	-2.180798	-6.542393
O	7.891118	-0.901322	-5.262917
O	3.480322	0.901322	-7.821868
O	5.341271	-0.901322	-7.821868
O	5.685720	1.279475	-5.641071
O	9.752067	0.901322	-5.262917
O	5.685720	3.082120	-7.443715
O	7.546669	3.082120	-5.641071
O	7.546669	1.279475	-7.443715
V	3.308097	-1.090399	-7.632792
V	7.718893	1.090399	-5.451994
V	9.924291	-1.090399	-5.451994
V	5.513495	1.090399	-7.632792
