40

I	0.000000	0.000000	0.000000
Li	1.852066	1.852066	1.852066
O	0.000000	1.852066	1.852066
O	1.852066	0.000000	1.852066
O	1.852066	1.852066	0.000000
I	0.000000	0.000000	3.704131
Li	1.852066	1.852066	5.556197
O	0.000000	1.852066	5.556197
O	1.852066	0.000000	5.556197
O	1.852066	1.852066	3.704131
I	0.000000	3.704131	0.000000
Li	1.852066	5.556197	1.852066
O	0.000000	5.556197	1.852066
O	1.852066	3.704131	1.852066
O	1.852066	5.556197	0.000000
I	0.000000	3.704131	3.704131
Li	1.852066	5.556197	5.556197
O	0.000000	5.556197	5.556197
O	1.852066	3.704131	5.556197
O	1.852066	5.556197	3.704131
I	3.704131	0.000000	0.000000
Li	5.556197	1.852066	1.852066
O	3.704131	1.852066	1.852066
O	5.556197	0.000000	1.852066
O	5.556197	1.852066	0.000000
I	3.704131	0.000000	3.704131
Li	5.556197	1.852066	5.556197
O	3.704131	1.852066	5.556197
O	5.556197	0.000000	5.556197
O	5.556197	1.852066	3.704131
I	3.704131	3.704131	0.000000
Li	5.556197	5.556197	1.852066
O	3.704131	5.556197	1.852066
O	5.556197	3.704131	1.852066
O	5.556197	5.556197	0.000000
I	3.704131	3.704131	3.704131
Li	5.556197	5.556197	5.556197
O	3.704131	5.556197	5.556197
O	5.556197	3.704131	5.556197
O	5.556197	5.556197	3.704131
