40

Cd	0.000000	0.000000	0.000000
Cl	1.948282	1.948282	1.948282
O	0.000000	1.948282	1.948282
O	1.948282	0.000000	1.948282
O	1.948282	1.948282	0.000000
Cd	0.000000	0.000000	3.896564
Cl	1.948282	1.948282	5.844846
O	0.000000	1.948282	5.844846
O	1.948282	0.000000	5.844846
O	1.948282	1.948282	3.896564
Cd	0.000000	3.896564	0.000000
Cl	1.948282	5.844846	1.948282
O	0.000000	5.844846	1.948282
O	1.948282	3.896564	1.948282
O	1.948282	5.844846	0.000000
Cd	0.000000	3.896564	3.896564
Cl	1.948282	5.844846	5.844846
O	0.000000	5.844846	5.844846
O	1.948282	3.896564	5.844846
O	1.948282	5.844846	3.896564
Cd	3.896564	0.000000	0.000000
Cl	5.844846	1.948282	1.948282
O	3.896564	1.948282	1.948282
O	5.844846	0.000000	1.948282
O	5.844846	1.948282	0.000000
Cd	3.896564	0.000000	3.896564
Cl	5.844846	1.948282	5.844846
O	3.896564	1.948282	5.844846
O	5.844846	0.000000	5.844846
O	5.844846	1.948282	3.896564
Cd	3.896564	3.896564	0.000000
Cl	5.844846	5.844846	1.948282
O	3.896564	5.844846	1.948282
O	5.844846	3.896564	1.948282
O	5.844846	5.844846	0.000000
Cd	3.896564	3.896564	3.896564
Cl	5.844846	5.844846	5.844846
O	3.896564	5.844846	5.844846
O	5.844846	3.896564	5.844846
O	5.844846	5.844846	3.896564
