40

Ce	2.249934	2.249934	2.249934
Hg	0.000000	0.000000	0.000000
O	2.249934	2.249934	0.000000
O	2.249934	0.000000	2.249934
O	0.000000	2.249934	2.249934
Ce	2.249934	2.249934	6.749801
Hg	0.000000	0.000000	4.499867
O	2.249934	2.249934	4.499867
O	2.249934	0.000000	6.749801
O	0.000000	2.249934	6.749801
Ce	2.249934	6.749801	2.249934
Hg	0.000000	4.499867	0.000000
O	2.249934	6.749801	0.000000
O	2.249934	4.499867	2.249934
O	0.000000	6.749801	2.249934
Ce	2.249934	6.749801	6.749801
Hg	0.000000	4.499867	4.499867
O	2.249934	6.749801	4.499867
O	2.249934	4.499867	6.749801
O	0.000000	6.749801	6.749801
Ce	6.749801	2.249934	2.249934
Hg	4.499867	0.000000	0.000000
O	6.749801	2.249934	0.000000
O	6.749801	0.000000	2.249934
O	4.499867	2.249934	2.249934
Ce	6.749801	2.249934	6.749801
Hg	4.499867	0.000000	4.499867
O	6.749801	2.249934	4.499867
O	6.749801	0.000000	6.749801
O	4.499867	2.249934	6.749801
Ce	6.749801	6.749801	2.249934
Hg	4.499867	4.499867	0.000000
O	6.749801	6.749801	0.000000
O	6.749801	4.499867	2.249934
O	4.499867	6.749801	2.249934
Ce	6.749801	6.749801	6.749801
Hg	4.499867	4.499867	4.499867
O	6.749801	6.749801	4.499867
O	6.749801	4.499867	6.749801
O	4.499867	6.749801	6.749801
