40

K	2.191943	2.191943	2.191943
Mn	0.000000	0.000000	0.000000
O	2.191943	2.191943	0.000000
O	2.191943	0.000000	2.191943
O	0.000000	2.191943	2.191943
K	2.191943	2.191943	6.575841
Mn	0.000000	0.000000	4.383898
O	2.191943	2.191943	4.383898
O	2.191943	0.000000	6.575841
O	0.000000	2.191943	6.575841
K	2.191943	6.575841	2.191943
Mn	0.000000	4.383898	0.000000
O	2.191943	6.575841	0.000000
O	2.191943	4.383898	2.191943
O	0.000000	6.575841	2.191943
K	2.191943	6.575841	6.575841
Mn	0.000000	4.383898	4.383898
O	2.191943	6.575841	4.383898
O	2.191943	4.383898	6.575841
O	0.000000	6.575841	6.575841
K	6.575841	2.191943	2.191943
Mn	4.383898	0.000000	0.000000
O	6.575841	2.191943	0.000000
O	6.575841	0.000000	2.191943
O	4.383898	2.191943	2.191943
K	6.575841	2.191943	6.575841
Mn	4.383898	0.000000	4.383898
O	6.575841	2.191943	4.383898
O	6.575841	0.000000	6.575841
O	4.383898	2.191943	6.575841
K	6.575841	6.575841	2.191943
Mn	4.383898	4.383898	0.000000
O	6.575841	6.575841	0.000000
O	6.575841	4.383898	2.191943
O	4.383898	6.575841	2.191943
K	6.575841	6.575841	6.575841
Mn	4.383898	4.383898	4.383898
O	6.575841	6.575841	4.383898
O	6.575841	4.383898	6.575841
O	4.383898	6.575841	6.575841
