320

O	3.788812	0.000000	0.000000
O	0.000000	3.788812	0.000000
O	5.227809	2.934171	0.466946
O	6.138628	6.722984	0.466946
O	7.110678	1.438996	0.854641
O	4.255759	5.227809	0.854641
O	2.934171	3.321866	1.438996
O	0.854641	7.110678	1.438996
O	6.722984	3.321866	2.349816
O	4.643454	7.110678	2.349816
O	3.321866	1.438996	2.934171
O	0.466946	5.227809	2.934171
O	1.438996	2.934171	3.321866
O	2.349816	6.722984	3.321866
O	0.000000	0.000000	3.788812
O	3.788812	3.788812	3.788812
O	5.227809	0.854641	4.255759
O	6.138628	4.643454	4.255759
O	7.110678	2.349816	4.643454
O	4.255759	6.138628	4.643454
O	2.934171	0.466946	5.227809
O	0.854641	4.255759	5.227809
O	6.722984	0.466946	6.138628
O	4.643454	4.255759	6.138628
O	3.321866	2.349816	6.722984
O	0.466946	6.138628	6.722984
O	1.438996	0.854641	7.110678
O	2.349816	4.643454	7.110678
P	6.656592	2.867779	0.921033
P	4.709845	6.656592	0.921033
P	2.867779	2.867779	2.867779
P	0.921033	6.656592	2.867779
P	6.656592	0.921033	4.709845
P	4.709845	4.709845	4.709845
P	2.867779	0.921033	6.656592
P	0.921033	4.709845	6.656592
Si	0.000000	0.000000	0.000000
Si	3.788812	3.788812	0.000000
Si	3.788812	0.000000	3.788812
Si	0.000000	3.788812	3.788812
O	3.788812	0.000000	7.577625
O	0.000000	3.788812	7.577625
O	5.227809	2.934171	8.044571
O	6.138628	6.722984	8.044571
O	7.110678	1.438996	8.432266
O	4.255759	5.227809	8.432266
O	2.934171	3.321866	9.016621
O	0.854641	7.110678	9.016621
O	6.722984	3.321866	9.927441
O	4.643454	7.110678	9.927441
O	3.321866	1.438996	10.511796
O	0.466946	5.227809	10.511796
O	1.438996	2.934171	10.899491
O	2.349816	6.722984	10.899491
O	0.000000	0.000000	11.366437
O	3.788812	3.788812	11.366437
O	5.227809	0.854641	11.833384
O	6.138628	4.643454	11.833384
O	7.110678	2.349816	12.221078
O	4.255759	6.138628	12.221078
O	2.934171	0.466946	12.805434
O	0.854641	4.255759	12.805434
O	6.722984	0.466946	13.716253
O	4.643454	4.255759	13.716253
O	3.321866	2.349816	14.300608
O	0.466946	6.138628	14.300608
O	1.438996	0.854641	14.688303
O	2.349816	4.643454	14.688303
P	6.656592	2.867779	8.498658
P	4.709845	6.656592	8.498658
P	2.867779	2.867779	10.445404
P	0.921033	6.656592	10.445404
P	6.656592	0.921033	12.287470
P	4.709845	4.709845	12.287470
P	2.867779	0.921033	14.234217
P	0.921033	4.709845	14.234217
Si	0.000000	0.000000	7.577625
Si	3.788812	3.788812	7.577625
Si	3.788812	0.000000	11.366437
Si	0.000000	3.788812	11.366437
O	3.788812	7.577625	0.000000
O	0.000000	11.366437	0.000000
O	5.227809	10.511796	0.466946
O	6.138628	14.300608	0.466946
O	7.110678	9.016621	0.854641
O	4.255759	12.805434	0.854641
O	2.934171	10.899491	1.438996
O	0.854641	14.688303	1.438996
O	6.722984	10.899491	2.349816
O	4.643454	14.688303	2.349816
O	3.321866	9.016621	2.934171
O	0.466946	12.805434	2.934171
O	1.438996	10.511796	3.321866
O	2.349816	14.300608	3.321866
O	0.000000	7.577625	3.788812
O	3.788812	11.366437	3.788812
O	5.227809	8.432266	4.255759
O	6.138628	12.221078	4.255759
O	7.110678	9.927441	4.643454
O	4.255759	13.716253	4.643454
O	2.934171	8.044571	5.227809
O	0.854641	11.833384	5.227809
O	6.722984	8.044571	6.138628
O	4.643454	11.833384	6.138628
O	3.321866	9.927441	6.722984
O	0.466946	13.716253	6.722984
O	1.438996	8.432266	7.110678
O	2.349816	12.221078	7.110678
P	6.656592	10.445404	0.921033
P	4.709845	14.234217	0.921033
P	2.867779	10.445404	2.867779
P	0.921033	14.234217	2.867779
P	6.656592	8.498658	4.709845
P	4.709845	12.287470	4.709845
P	2.867779	8.498658	6.656592
P	0.921033	12.287470	6.656592
Si	0.000000	7.577625	0.000000
Si	3.788812	11.366437	0.000000
Si	3.788812	7.577625	3.788812
Si	0.000000	11.366437	3.788812
O	3.788812	7.577625	7.577625
O	0.000000	11.366437	7.577625
O	5.227809	10.511796	8.044571
O	6.138628	14.300608	8.044571
O	7.110678	9.016621	8.432266
O	4.255759	12.805434	8.432266
O	2.934171	10.899491	9.016621
O	0.854641	14.688303	9.016621
O	6.722984	10.899491	9.927441
O	4.643454	14.688303	9.927441
O	3.321866	9.016621	10.511796
O	0.466946	12.805434	10.511796
O	1.438996	10.511796	10.899491
O	2.349816	14.300608	10.899491
O	0.000000	7.577625	11.366437
O	3.788812	11.366437	11.366437
O	5.227809	8.432266	11.833384
O	6.138628	12.221078	11.833384
O	7.110678	9.927441	12.221078
O	4.255759	13.716253	12.221078
O	2.934171	8.044571	12.805434
O	0.854641	11.833384	12.805434
O	6.722984	8.044571	13.716253
O	4.643454	11.833384	13.716253
O	3.321866	9.927441	14.300608
O	0.466946	13.716253	14.300608
O	1.438996	8.432266	14.688303
O	2.349816	12.221078	14.688303
P	6.656592	10.445404	8.498658
P	4.709845	14.234217	8.498658
P	2.867779	10.445404	10.445404
P	0.921033	14.234217	10.445404
P	6.656592	8.498658	12.287470
P	4.709845	12.287470	12.287470
P	2.867779	8.498658	14.234217
P	0.921033	12.287470	14.234217
Si	0.000000	7.577625	7.577625
Si	3.788812	11.366437	7.577625
Si	3.788812	7.577625	11.366437
Si	0.000000	11.366437	11.366437
O	11.366437	0.000000	0.000000
O	7.577625	3.788812	0.000000
O	12.805434	2.934171	0.466946
O	13.716253	6.722984	0.466946
O	14.688303	1.438996	0.854641
O	11.833384	5.227809	0.854641
O	10.511796	3.321866	1.438996
O	8.432266	7.110678	1.438996
O	14.300608	3.321866	2.349816
O	12.221078	7.110678	2.349816
O	10.899491	1.438996	2.934171
O	8.044571	5.227809	2.934171
O	9.016621	2.934171	3.321866
O	9.927441	6.722984	3.321866
O	7.577625	0.000000	3.788812
O	11.366437	3.788812	3.788812
O	12.805434	0.854641	4.255759
O	13.716253	4.643454	4.255759
O	14.688303	2.349816	4.643454
O	11.833384	6.138628	4.643454
O	10.511796	0.466946	5.227809
O	8.432266	4.255759	5.227809
O	14.300608	0.466946	6.138628
O	12.221078	4.255759	6.138628
O	10.899491	2.349816	6.722984
O	8.044571	6.138628	6.722984
O	9.016621	0.854641	7.110678
O	9.927441	4.643454	7.110678
P	14.234217	2.867779	0.921033
P	12.287470	6.656592	0.921033
P	10.445404	2.867779	2.867779
P	8.498658	6.656592	2.867779
P	14.234217	0.921033	4.709845
P	12.287470	4.709845	4.709845
P	10.445404	0.921033	6.656592
P	8.498658	4.709845	6.656592
Si	7.577625	0.000000	0.000000
Si	11.366437	3.788812	0.000000
Si	11.366437	0.000000	3.788812
Si	7.577625	3.788812	3.788812
O	11.366437	0.000000	7.577625
O	7.577625	3.788812	7.577625
O	12.805434	2.934171	8.044571
O	13.716253	6.722984	8.044571
O	14.688303	1.438996	8.432266
O	11.833384	5.227809	8.432266
O	10.511796	3.321866	9.016621
O	8.432266	7.110678	9.016621
O	14.300608	3.321866	9.927441
O	12.221078	7.110678	9.927441
O	10.899491	1.438996	10.511796
O	8.044571	5.227809	10.511796
O	9.016621	2.934171	10.899491
O	9.927441	6.722984	10.899491
O	7.577625	0.000000	11.366437
O	11.366437	3.788812	11.366437
O	12.805434	0.854641	11.833384
O	13.716253	4.643454	11.833384
O	14.688303	2.349816	12.221078
O	11.833384	6.138628	12.221078
O	10.511796	0.466946	12.805434
O	8.432266	4.255759	12.805434
O	14.300608	0.466946	13.716253
O	12.221078	4.255759	13.716253
O	10.899491	2.349816	14.300608
O	8.044571	6.138628	14.300608
O	9.016621	0.854641	14.688303
O	9.927441	4.643454	14.688303
P	14.234217	2.867779	8.498658
P	12.287470	6.656592	8.498658
P	10.445404	2.867779	10.445404
P	8.498658	6.656592	10.445404
P	14.234217	0.921033	12.287470
P	12.287470	4.709845	12.287470
P	10.445404	0.921033	14.234217
P	8.498658	4.709845	14.234217
Si	7.577625	0.000000	7.577625
Si	11.366437	3.788812	7.577625
Si	11.366437	0.000000	11.366437
Si	7.577625	3.788812	11.366437
O	11.366437	7.577625	0.000000
O	7.577625	11.366437	0.000000
O	12.805434	10.511796	0.466946
O	13.716253	14.300608	0.466946
O	14.688303	9.016621	0.854641
O	11.833384	12.805434	0.854641
O	10.511796	10.899491	1.438996
O	8.432266	14.688303	1.438996
O	14.300608	10.899491	2.349816
O	12.221078	14.688303	2.349816
O	10.899491	9.016621	2.934171
O	8.044571	12.805434	2.934171
O	9.016621	10.511796	3.321866
O	9.927441	14.300608	3.321866
O	7.577625	7.577625	3.788812
O	11.366437	11.366437	3.788812
O	12.805434	8.432266	4.255759
O	13.716253	12.221078	4.255759
O	14.688303	9.927441	4.643454
O	11.833384	13.716253	4.643454
O	10.511796	8.044571	5.227809
O	8.432266	11.833384	5.227809
O	14.300608	8.044571	6.138628
O	12.221078	11.833384	6.138628
O	10.899491	9.927441	6.722984
O	8.044571	13.716253	6.722984
O	9.016621	8.432266	7.110678
O	9.927441	12.221078	7.110678
P	14.234217	10.445404	0.921033
P	12.287470	14.234217	0.921033
P	10.445404	10.445404	2.867779
P	8.498658	14.234217	2.867779
P	14.234217	8.498658	4.709845
P	12.287470	12.287470	4.709845
P	10.445404	8.498658	6.656592
P	8.498658	12.287470	6.656592
Si	7.577625	7.577625	0.000000
Si	11.366437	11.366437	0.000000
Si	11.366437	7.577625	3.788812
Si	7.577625	11.366437	3.788812
O	11.366437	7.577625	7.577625
O	7.577625	11.366437	7.577625
O	12.805434	10.511796	8.044571
O	13.716253	14.300608	8.044571
O	14.688303	9.016621	8.432266
O	11.833384	12.805434	8.432266
O	10.511796	10.899491	9.016621
O	8.432266	14.688303	9.016621
O	14.300608	10.899491	9.927441
O	12.221078	14.688303	9.927441
O	10.899491	9.016621	10.511796
O	8.044571	12.805434	10.511796
O	9.016621	10.511796	10.899491
O	9.927441	14.300608	10.899491
O	7.577625	7.577625	11.366437
O	11.366437	11.366437	11.366437
O	12.805434	8.432266	11.833384
O	13.716253	12.221078	11.833384
O	14.688303	9.927441	12.221078
O	11.833384	13.716253	12.221078
O	10.511796	8.044571	12.805434
O	8.432266	11.833384	12.805434
O	14.300608	8.044571	13.716253
O	12.221078	11.833384	13.716253
O	10.899491	9.927441	14.300608
O	8.044571	13.716253	14.300608
O	9.016621	8.432266	14.688303
O	9.927441	12.221078	14.688303
P	14.234217	10.445404	8.498658
P	12.287470	14.234217	8.498658
P	10.445404	10.445404	10.445404
P	8.498658	14.234217	10.445404
P	14.234217	8.498658	12.287470
P	12.287470	12.287470	12.287470
P	10.445404	8.498658	14.234217
P	8.498658	12.287470	14.234217
Si	7.577625	7.577625	7.577625
Si	11.366437	11.366437	7.577625
Si	11.366437	7.577625	11.366437
Si	7.577625	11.366437	11.366437
