40

Ac	0.000000	0.000000	0.000000
La	2.275650	2.275650	2.275650
O	2.275650	0.000000	2.275650
O	0.000000	2.275650	2.275650
O	2.275650	2.275650	0.000000
Ac	0.000000	0.000000	4.551289
La	2.275650	2.275650	6.826939
O	2.275650	0.000000	6.826939
O	0.000000	2.275650	6.826939
O	2.275650	2.275650	4.551289
Ac	0.000000	4.551289	0.000000
La	2.275650	6.826939	2.275650
O	2.275650	4.551289	2.275650
O	0.000000	6.826939	2.275650
O	2.275650	6.826939	0.000000
Ac	0.000000	4.551289	4.551289
La	2.275650	6.826939	6.826939
O	2.275650	4.551289	6.826939
O	0.000000	6.826939	6.826939
O	2.275650	6.826939	4.551289
Ac	4.551289	0.000000	0.000000
La	6.826939	2.275650	2.275650
O	6.826939	0.000000	2.275650
O	4.551289	2.275650	2.275650
O	6.826939	2.275650	0.000000
Ac	4.551289	0.000000	4.551289
La	6.826939	2.275650	6.826939
O	6.826939	0.000000	6.826939
O	4.551289	2.275650	6.826939
O	6.826939	2.275650	4.551289
Ac	4.551289	4.551289	0.000000
La	6.826939	6.826939	2.275650
O	6.826939	4.551289	2.275650
O	4.551289	6.826939	2.275650
O	6.826939	6.826939	0.000000
Ac	4.551289	4.551289	4.551289
La	6.826939	6.826939	6.826939
O	6.826939	4.551289	6.826939
O	4.551289	6.826939	6.826939
O	6.826939	6.826939	4.551289
