112

B	0.000000	0.000000	0.000000
B	2.238713	-2.211560	-2.211560
Np	-1.119362	-1.105785	-3.317345
Np	5.596789	-1.105785	-1.105785
Np	1.119362	1.105785	-3.317345
Np	3.358075	1.105785	-1.105785
O	0.883380	0.883621	-0.883621
O	1.355333	-1.327939	-3.095181
O	-1.355333	1.327939	-3.095181
O	3.122094	-1.327939	-1.327939
O	3.594047	3.539509	-0.883621
O	3.594047	0.883621	-3.539509
O	0.883380	3.539509	-3.539509
O	5.832760	1.327939	-1.327939
B	4.477428	4.423127	0.000000
B	6.716141	2.211567	-2.211560
Np	3.358066	3.317342	-3.317345
Np	10.074217	3.317342	-1.105785
Np	5.596790	5.528912	-3.317345
Np	7.835503	5.528912	-1.105785
O	5.360808	5.306748	-0.883621
O	5.832761	3.095188	-3.095181
O	3.122094	5.751066	-3.095181
O	7.599521	3.095188	-1.327939
O	8.071475	7.962636	-0.883621
O	8.071475	5.306748	-3.539509
O	5.360808	7.962636	-3.539509
O	10.310188	5.751066	-1.327939
B	-4.477428	0.000000	-4.423127
B	-2.238714	-2.211560	-6.634687
Np	-5.596790	-1.105785	-7.740472
Np	1.119361	-1.105785	-5.528912
Np	-3.358066	1.105785	-7.740472
Np	-1.119352	1.105785	-5.528912
O	-3.594048	0.883621	-5.306748
O	-3.122094	-1.327939	-7.518308
O	-5.832761	1.327939	-7.518308
O	-1.355334	-1.327939	-5.751066
O	-0.883381	3.539509	-5.306748
O	-0.883381	0.883621	-7.962636
O	-3.594048	3.539509	-7.962636
O	1.355333	1.327939	-5.751066
B	0.000000	4.423127	-4.423127
B	2.238713	2.211567	-6.634687
Np	-1.119362	3.317342	-7.740472
Np	5.596789	3.317342	-5.528912
Np	1.119362	5.528912	-7.740472
Np	3.358075	5.528912	-5.528912
O	0.883380	5.306748	-5.306748
O	1.355333	3.095188	-7.518308
O	-1.355333	5.751066	-7.518308
O	3.122094	3.095188	-5.751066
O	3.594047	7.962636	-5.306748
O	3.594047	5.306748	-7.962636
O	0.883380	7.962636	-7.962636
O	5.832760	5.751066	-5.751066
B	4.477428	-4.423127	0.000000
B	6.716141	-6.634687	-2.211560
Np	3.358066	-5.528912	-3.317345
Np	10.074217	-5.528912	-1.105785
Np	5.596790	-3.317342	-3.317345
Np	7.835503	-3.317342	-1.105785
O	5.360808	-3.539506	-0.883621
O	5.832761	-5.751066	-3.095181
O	3.122094	-3.095188	-3.095181
O	7.599521	-5.751066	-1.327939
O	8.071475	-0.883618	-0.883621
O	8.071475	-3.539506	-3.539509
O	5.360808	-0.883618	-3.539509
O	10.310188	-3.095188	-1.327939
B	8.954856	0.000000	0.000000
B	11.193569	-2.211560	-2.211560
Np	7.835494	-1.105785	-3.317345
Np	14.551644	-1.105785	-1.105785
Np	10.074217	1.105785	-3.317345
Np	12.312931	1.105785	-1.105785
O	9.838236	0.883621	-0.883621
O	10.310189	-1.327939	-3.095181
O	7.599522	1.327939	-3.095181
O	12.076949	-1.327939	-1.327939
O	12.548902	3.539509	-0.883621
O	12.548902	0.883621	-3.539509
O	9.838236	3.539509	-3.539509
O	14.787616	1.327939	-1.327939
B	0.000000	-4.423127	-4.423127
B	2.238713	-6.634687	-6.634687
Np	-1.119362	-5.528912	-7.740472
Np	5.596789	-5.528912	-5.528912
Np	1.119362	-3.317342	-7.740472
Np	3.358075	-3.317342	-5.528912
O	0.883380	-3.539506	-5.306748
O	1.355333	-5.751066	-7.518308
O	-1.355333	-3.095188	-7.518308
O	3.122094	-5.751066	-5.751066
O	3.594047	-0.883618	-5.306748
O	3.594047	-3.539506	-7.962636
O	0.883380	-0.883618	-7.962636
O	5.832760	-3.095188	-5.751066
B	4.477428	0.000000	-4.423127
B	6.716141	-2.211560	-6.634687
Np	3.358066	-1.105785	-7.740472
Np	10.074217	-1.105785	-5.528912
Np	5.596790	1.105785	-7.740472
Np	7.835503	1.105785	-5.528912
O	5.360808	0.883621	-5.306748
O	5.832761	-1.327939	-7.518308
O	3.122094	1.327939	-7.518308
O	7.599521	-1.327939	-5.751066
O	8.071475	3.539509	-5.306748
O	8.071475	0.883621	-7.962636
O	5.360808	3.539509	-7.962636
O	10.310188	1.327939	-5.751066
