40

Co	1.837773	1.837773	1.837773
O	0.000000	1.837773	1.837773
O	1.837773	0.000000	1.837773
O	1.837773	1.837773	0.000000
Sc	0.000000	0.000000	0.000000
Co	1.837773	1.837773	5.513318
O	0.000000	1.837773	5.513318
O	1.837773	0.000000	5.513318
O	1.837773	1.837773	3.675545
Sc	0.000000	0.000000	3.675545
Co	1.837773	5.513318	1.837773
O	0.000000	5.513318	1.837773
O	1.837773	3.675545	1.837773
O	1.837773	5.513318	0.000000
Sc	0.000000	3.675545	0.000000
Co	1.837773	5.513318	5.513318
O	0.000000	5.513318	5.513318
O	1.837773	3.675545	5.513318
O	1.837773	5.513318	3.675545
Sc	0.000000	3.675545	3.675545
Co	5.513318	1.837773	1.837773
O	3.675545	1.837773	1.837773
O	5.513318	0.000000	1.837773
O	5.513318	1.837773	0.000000
Sc	3.675545	0.000000	0.000000
Co	5.513318	1.837773	5.513318
O	3.675545	1.837773	5.513318
O	5.513318	0.000000	5.513318
O	5.513318	1.837773	3.675545
Sc	3.675545	0.000000	3.675545
Co	5.513318	5.513318	1.837773
O	3.675545	5.513318	1.837773
O	5.513318	3.675545	1.837773
O	5.513318	5.513318	0.000000
Sc	3.675545	3.675545	0.000000
Co	5.513318	5.513318	5.513318
O	3.675545	5.513318	5.513318
O	5.513318	3.675545	5.513318
O	5.513318	5.513318	3.675545
Sc	3.675545	3.675545	3.675545
