40

O	1.896910	1.896910	0.000000
O	0.000000	1.896910	1.896910
O	1.896910	0.000000	1.896910
Ta	0.000000	0.000000	0.000000
V	1.896910	1.896910	1.896910
O	1.896910	1.896910	3.793837
O	0.000000	1.896910	5.690747
O	1.896910	0.000000	5.690747
Ta	0.000000	0.000000	3.793837
V	1.896910	1.896910	5.690747
O	1.896910	5.690747	0.000000
O	0.000000	5.690747	1.896910
O	1.896910	3.793837	1.896910
Ta	0.000000	3.793837	0.000000
V	1.896910	5.690747	1.896910
O	1.896910	5.690747	3.793837
O	0.000000	5.690747	5.690747
O	1.896910	3.793837	5.690747
Ta	0.000000	3.793837	3.793837
V	1.896910	5.690747	5.690747
O	5.690747	1.896910	0.000000
O	3.793837	1.896910	1.896910
O	5.690747	0.000000	1.896910
Ta	3.793837	0.000000	0.000000
V	5.690747	1.896910	1.896910
O	5.690747	1.896910	3.793837
O	3.793837	1.896910	5.690747
O	5.690747	0.000000	5.690747
Ta	3.793837	0.000000	3.793837
V	5.690747	1.896910	5.690747
O	5.690747	5.690747	0.000000
O	3.793837	5.690747	1.896910
O	5.690747	3.793837	1.896910
Ta	3.793837	3.793837	0.000000
V	5.690747	5.690747	1.896910
O	5.690747	5.690747	3.793837
O	3.793837	5.690747	5.690747
O	5.690747	3.793837	5.690747
Ta	3.793837	3.793837	3.793837
V	5.690747	5.690747	5.690747
