40

O	2.135640	2.135640	0.000000
O	0.000000	2.135640	2.135640
O	2.135640	0.000000	2.135640
Sr_sv	0.000000	0.000000	0.000000
Tm_3	2.135640	2.135640	2.135640
O	2.135640	2.135640	4.271285
O	0.000000	2.135640	6.406925
O	2.135640	0.000000	6.406925
Sr_sv	0.000000	0.000000	4.271285
Tm_3	2.135640	2.135640	6.406925
O	2.135640	6.406925	0.000000
O	0.000000	6.406925	2.135640
O	2.135640	4.271285	2.135640
Sr_sv	0.000000	4.271285	0.000000
Tm_3	2.135640	6.406925	2.135640
O	2.135640	6.406925	4.271285
O	0.000000	6.406925	6.406925
O	2.135640	4.271285	6.406925
Sr_sv	0.000000	4.271285	4.271285
Tm_3	2.135640	6.406925	6.406925
O	6.406925	2.135640	0.000000
O	4.271285	2.135640	2.135640
O	6.406925	0.000000	2.135640
Sr_sv	4.271285	0.000000	0.000000
Tm_3	6.406925	2.135640	2.135640
O	6.406925	2.135640	4.271285
O	4.271285	2.135640	6.406925
O	6.406925	0.000000	6.406925
Sr_sv	4.271285	0.000000	4.271285
Tm_3	6.406925	2.135640	6.406925
O	6.406925	6.406925	0.000000
O	4.271285	6.406925	2.135640
O	6.406925	4.271285	2.135640
Sr_sv	4.271285	4.271285	0.000000
Tm_3	6.406925	6.406925	2.135640
O	6.406925	6.406925	4.271285
O	4.271285	6.406925	6.406925
O	6.406925	4.271285	6.406925
Sr_sv	4.271285	4.271285	4.271285
Tm_3	6.406925	6.406925	6.406925
