40

O	2.087365	2.087365	0.000000
O	2.087365	0.000000	2.087365
O	0.000000	2.087365	2.087365
Pb	2.087365	2.087365	2.087365
Yb	0.000000	0.000000	0.000000
O	2.087365	2.087365	4.174720
O	2.087365	0.000000	6.262085
O	0.000000	2.087365	6.262085
Pb	2.087365	2.087365	6.262085
Yb	0.000000	0.000000	4.174720
O	2.087365	6.262085	0.000000
O	2.087365	4.174720	2.087365
O	0.000000	6.262085	2.087365
Pb	2.087365	6.262085	2.087365
Yb	0.000000	4.174720	0.000000
O	2.087365	6.262085	4.174720
O	2.087365	4.174720	6.262085
O	0.000000	6.262085	6.262085
Pb	2.087365	6.262085	6.262085
Yb	0.000000	4.174720	4.174720
O	6.262085	2.087365	0.000000
O	6.262085	0.000000	2.087365
O	4.174720	2.087365	2.087365
Pb	6.262085	2.087365	2.087365
Yb	4.174720	0.000000	0.000000
O	6.262085	2.087365	4.174720
O	6.262085	0.000000	6.262085
O	4.174720	2.087365	6.262085
Pb	6.262085	2.087365	6.262085
Yb	4.174720	0.000000	4.174720
O	6.262085	6.262085	0.000000
O	6.262085	4.174720	2.087365
O	4.174720	6.262085	2.087365
Pb	6.262085	6.262085	2.087365
Yb	4.174720	4.174720	0.000000
O	6.262085	6.262085	4.174720
O	6.262085	4.174720	6.262085
O	4.174720	6.262085	6.262085
Pb	6.262085	6.262085	6.262085
Yb	4.174720	4.174720	4.174720
