40

Cd	0.000000	0.000000	0.000000
O	0.000000	2.081263	2.081263
O	2.081263	0.000000	2.081263
O	2.081263	2.081263	0.000000
Zr	2.081263	2.081263	2.081263
Cd	0.000000	0.000000	4.162526
O	0.000000	2.081263	6.243789
O	2.081263	0.000000	6.243789
O	2.081263	2.081263	4.162526
Zr	2.081263	2.081263	6.243789
Cd	0.000000	4.162526	0.000000
O	0.000000	6.243789	2.081263
O	2.081263	4.162526	2.081263
O	2.081263	6.243789	0.000000
Zr	2.081263	6.243789	2.081263
Cd	0.000000	4.162526	4.162526
O	0.000000	6.243789	6.243789
O	2.081263	4.162526	6.243789
O	2.081263	6.243789	4.162526
Zr	2.081263	6.243789	6.243789
Cd	4.162526	0.000000	0.000000
O	4.162526	2.081263	2.081263
O	6.243789	0.000000	2.081263
O	6.243789	2.081263	0.000000
Zr	6.243789	2.081263	2.081263
Cd	4.162526	0.000000	4.162526
O	4.162526	2.081263	6.243789
O	6.243789	0.000000	6.243789
O	6.243789	2.081263	4.162526
Zr	6.243789	2.081263	6.243789
Cd	4.162526	4.162526	0.000000
O	4.162526	6.243789	2.081263
O	6.243789	4.162526	2.081263
O	6.243789	6.243789	0.000000
Zr	6.243789	6.243789	2.081263
Cd	4.162526	4.162526	4.162526
O	4.162526	6.243789	6.243789
O	6.243789	4.162526	6.243789
O	6.243789	6.243789	4.162526
Zr	6.243789	6.243789	6.243789
