40

Cr	1.879191	1.879191	1.879191
O	0.000000	1.879191	1.879191
O	1.879191	0.000000	1.879191
O	1.879191	1.879191	0.000000
Zn	0.000000	0.000000	0.000000
Cr	1.879191	1.879191	5.637573
O	0.000000	1.879191	5.637573
O	1.879191	0.000000	5.637573
O	1.879191	1.879191	3.758382
Zn	0.000000	0.000000	3.758382
Cr	1.879191	5.637573	1.879191
O	0.000000	5.637573	1.879191
O	1.879191	3.758382	1.879191
O	1.879191	5.637573	0.000000
Zn	0.000000	3.758382	0.000000
Cr	1.879191	5.637573	5.637573
O	0.000000	5.637573	5.637573
O	1.879191	3.758382	5.637573
O	1.879191	5.637573	3.758382
Zn	0.000000	3.758382	3.758382
Cr	5.637573	1.879191	1.879191
O	3.758382	1.879191	1.879191
O	5.637573	0.000000	1.879191
O	5.637573	1.879191	0.000000
Zn	3.758382	0.000000	0.000000
Cr	5.637573	1.879191	5.637573
O	3.758382	1.879191	5.637573
O	5.637573	0.000000	5.637573
O	5.637573	1.879191	3.758382
Zn	3.758382	0.000000	3.758382
Cr	5.637573	5.637573	1.879191
O	3.758382	5.637573	1.879191
O	5.637573	3.758382	1.879191
O	5.637573	5.637573	0.000000
Zn	3.758382	3.758382	0.000000
Cr	5.637573	5.637573	5.637573
O	3.758382	5.637573	5.637573
O	5.637573	3.758382	5.637573
O	5.637573	5.637573	3.758382
Zn	3.758382	3.758382	3.758382
