40

Mg	0.000000	0.000000	0.000000
Nd	2.232336	2.232336	2.232336
O	2.232336	2.232336	0.000000
O	2.232336	0.000000	2.232336
O	0.000000	2.232336	2.232336
Mg	0.000000	0.000000	4.464673
Nd	2.232336	2.232336	6.697009
O	2.232336	2.232336	4.464673
O	2.232336	0.000000	6.697009
O	0.000000	2.232336	6.697009
Mg	0.000000	4.464673	0.000000
Nd	2.232336	6.697009	2.232336
O	2.232336	6.697009	0.000000
O	2.232336	4.464673	2.232336
O	0.000000	6.697009	2.232336
Mg	0.000000	4.464673	4.464673
Nd	2.232336	6.697009	6.697009
O	2.232336	6.697009	4.464673
O	2.232336	4.464673	6.697009
O	0.000000	6.697009	6.697009
Mg	4.464673	0.000000	0.000000
Nd	6.697009	2.232336	2.232336
O	6.697009	2.232336	0.000000
O	6.697009	0.000000	2.232336
O	4.464673	2.232336	2.232336
Mg	4.464673	0.000000	4.464673
Nd	6.697009	2.232336	6.697009
O	6.697009	2.232336	4.464673
O	6.697009	0.000000	6.697009
O	4.464673	2.232336	6.697009
Mg	4.464673	4.464673	0.000000
Nd	6.697009	6.697009	2.232336
O	6.697009	6.697009	0.000000
O	6.697009	4.464673	2.232336
O	4.464673	6.697009	2.232336
Mg	4.464673	4.464673	4.464673
Nd	6.697009	6.697009	6.697009
O	6.697009	6.697009	4.464673
O	6.697009	4.464673	6.697009
O	4.464673	6.697009	6.697009
