112

Be	0.000000	0.000000	0.000000
Be	1.966919	-1.967033	-1.967033
Li	-0.983460	-0.983516	-2.950549
Li	2.950379	0.983516	-0.983516
Li	4.917299	-0.983516	-0.983516
Li	0.983460	0.983516	-2.950549
O	2.891947	-1.041724	-1.041724
O	-1.041892	1.041724	-2.892342
O	1.041892	-1.041724	-2.892342
O	0.925027	0.925309	-0.925309
O	4.975731	1.041724	-1.041724
O	0.925027	3.008757	-3.008757
O	3.008812	3.008757	-0.925309
O	3.008812	0.925309	-3.008757
Be	3.933839	3.934066	0.000000
Be	5.900758	1.967033	-1.967033
Li	2.950379	2.950549	-2.950549
Li	6.884218	4.917582	-0.983516
Li	8.851137	2.950549	-0.983516
Li	4.917299	4.917582	-2.950549
O	6.825785	2.892342	-1.041724
O	2.891946	4.975790	-2.892342
O	4.975731	2.892342	-2.892342
O	4.858866	4.859375	-0.925309
O	8.909570	4.975790	-1.041724
O	4.858866	6.942822	-3.008757
O	6.942651	6.942822	-0.925309
O	6.942651	4.859375	-3.008757
Be	-3.933839	0.000000	-3.934066
Be	-1.966919	-1.967033	-5.901099
Li	-4.917299	-0.983516	-6.884615
Li	-0.983460	0.983516	-4.917582
Li	0.983460	-0.983516	-4.917582
Li	-2.950379	0.983516	-6.884615
O	-1.041892	-1.041724	-4.975790
O	-4.975731	1.041724	-6.826408
O	-2.891947	-1.041724	-6.826408
O	-3.008812	0.925309	-4.859375
O	1.041892	1.041724	-4.975790
O	-3.008812	3.008757	-6.942822
O	-0.925027	3.008757	-4.859375
O	-0.925027	0.925309	-6.942822
Be	0.000000	3.934066	-3.934066
Be	1.966919	1.967033	-5.901099
Li	-0.983460	2.950549	-6.884615
Li	2.950379	4.917582	-4.917582
Li	4.917299	2.950549	-4.917582
Li	0.983460	4.917582	-6.884615
O	2.891947	2.892342	-4.975790
O	-1.041892	4.975790	-6.826408
O	1.041892	2.892342	-6.826408
O	0.925027	4.859375	-4.859375
O	4.975731	4.975790	-4.975790
O	0.925027	6.942822	-6.942822
O	3.008812	6.942822	-4.859375
O	3.008812	4.859375	-6.942822
Be	3.933839	-3.934066	0.000000
Be	5.900758	-5.901099	-1.967033
Li	2.950379	-4.917582	-2.950549
Li	6.884218	-2.950549	-0.983516
Li	8.851137	-4.917582	-0.983516
Li	4.917299	-2.950549	-2.950549
O	6.825785	-4.975790	-1.041724
O	2.891946	-2.892342	-2.892342
O	4.975731	-4.975790	-2.892342
O	4.858866	-3.008757	-0.925309
O	8.909570	-2.892342	-1.041724
O	4.858866	-0.925309	-3.008757
O	6.942651	-0.925309	-0.925309
O	6.942651	-3.008757	-3.008757
Be	7.867678	0.000000	0.000000
Be	9.834597	-1.967033	-1.967033
Li	6.884218	-0.983516	-2.950549
Li	10.818057	0.983516	-0.983516
Li	12.784976	-0.983516	-0.983516
Li	8.851137	0.983516	-2.950549
O	10.759624	-1.041724	-1.041724
O	6.825785	1.041724	-2.892342
O	8.909570	-1.041724	-2.892342
O	8.792705	0.925309	-0.925309
O	12.843409	1.041724	-1.041724
O	8.792705	3.008757	-3.008757
O	10.876489	3.008757	-0.925309
O	10.876489	0.925309	-3.008757
Be	0.000000	-3.934066	-3.934066
Be	1.966919	-5.901099	-5.901099
Li	-0.983460	-4.917582	-6.884615
Li	2.950379	-2.950549	-4.917582
Li	4.917299	-4.917582	-4.917582
Li	0.983460	-2.950549	-6.884615
O	2.891947	-4.975790	-4.975790
O	-1.041892	-2.892342	-6.826408
O	1.041892	-4.975790	-6.826408
O	0.925027	-3.008757	-4.859375
O	4.975731	-2.892342	-4.975790
O	0.925027	-0.925309	-6.942822
O	3.008812	-0.925309	-4.859375
O	3.008812	-3.008757	-6.942822
Be	3.933839	0.000000	-3.934066
Be	5.900758	-1.967033	-5.901099
Li	2.950379	-0.983516	-6.884615
Li	6.884218	0.983516	-4.917582
Li	8.851137	-0.983516	-4.917582
Li	4.917299	0.983516	-6.884615
O	6.825785	-1.041724	-4.975790
O	2.891946	1.041724	-6.826408
O	4.975731	-1.041724	-6.826408
O	4.858866	0.925309	-4.859375
O	8.909570	1.041724	-4.975790
O	4.858866	3.008757	-6.942822
O	6.942651	3.008757	-4.859375
O	6.942651	0.925309	-6.942822
