40

Bi	2.174245	2.174245	2.174245
O	0.000000	2.174245	2.174245
O	2.174245	0.000000	2.174245
O	2.174245	2.174245	0.000000
Te	0.000000	0.000000	0.000000
Bi	2.174245	2.174245	6.522736
O	0.000000	2.174245	6.522736
O	2.174245	0.000000	6.522736
O	2.174245	2.174245	4.348491
Te	0.000000	0.000000	4.348491
Bi	2.174245	6.522736	2.174245
O	0.000000	6.522736	2.174245
O	2.174245	4.348491	2.174245
O	2.174245	6.522736	0.000000
Te	0.000000	4.348491	0.000000
Bi	2.174245	6.522736	6.522736
O	0.000000	6.522736	6.522736
O	2.174245	4.348491	6.522736
O	2.174245	6.522736	4.348491
Te	0.000000	4.348491	4.348491
Bi	6.522736	2.174245	2.174245
O	4.348491	2.174245	2.174245
O	6.522736	0.000000	2.174245
O	6.522736	2.174245	0.000000
Te	4.348491	0.000000	0.000000
Bi	6.522736	2.174245	6.522736
O	4.348491	2.174245	6.522736
O	6.522736	0.000000	6.522736
O	6.522736	2.174245	4.348491
Te	4.348491	0.000000	4.348491
Bi	6.522736	6.522736	2.174245
O	4.348491	6.522736	2.174245
O	6.522736	4.348491	2.174245
O	6.522736	6.522736	0.000000
Te	4.348491	4.348491	0.000000
Bi	6.522736	6.522736	6.522736
O	4.348491	6.522736	6.522736
O	6.522736	4.348491	6.522736
O	6.522736	6.522736	4.348491
Te	4.348491	4.348491	4.348491
