40

Co	0.000000	0.000000	0.000000
In	2.051750	2.051750	2.051750
O	0.000000	2.051750	2.051750
O	2.051750	0.000000	2.051750
O	2.051750	2.051750	0.000000
Co	0.000000	0.000000	4.103500
In	2.051750	2.051750	6.155249
O	0.000000	2.051750	6.155249
O	2.051750	0.000000	6.155249
O	2.051750	2.051750	4.103500
Co	0.000000	4.103500	0.000000
In	2.051750	6.155249	2.051750
O	0.000000	6.155249	2.051750
O	2.051750	4.103500	2.051750
O	2.051750	6.155249	0.000000
Co	0.000000	4.103500	4.103500
In	2.051750	6.155249	6.155249
O	0.000000	6.155249	6.155249
O	2.051750	4.103500	6.155249
O	2.051750	6.155249	4.103500
Co	4.103500	0.000000	0.000000
In	6.155249	2.051750	2.051750
O	4.103500	2.051750	2.051750
O	6.155249	0.000000	2.051750
O	6.155249	2.051750	0.000000
Co	4.103500	0.000000	4.103500
In	6.155249	2.051750	6.155249
O	4.103500	2.051750	6.155249
O	6.155249	0.000000	6.155249
O	6.155249	2.051750	4.103500
Co	4.103500	4.103500	0.000000
In	6.155249	6.155249	2.051750
O	4.103500	6.155249	2.051750
O	6.155249	4.103500	2.051750
O	6.155249	6.155249	0.000000
Co	4.103500	4.103500	4.103500
In	6.155249	6.155249	6.155249
O	4.103500	6.155249	6.155249
O	6.155249	4.103500	6.155249
O	6.155249	6.155249	4.103500
