112

Ce	0.000000	0.000000	0.000000
Ce	2.486287	-2.486764	-2.486764
Eu	-1.243139	-1.243387	-3.730152
Eu	6.215704	-1.243387	-1.243387
Eu	1.243139	1.243387	-3.730152
Eu	3.729426	1.243387	-1.243387
O	3.807747	-1.164519	-1.164519
O	-1.164818	1.164519	-3.809019
O	1.164818	-1.164519	-3.809019
O	1.321459	1.322255	-1.322255
O	6.137383	1.164519	-1.164519
O	1.321459	3.651284	-3.651284
O	3.651106	1.322255	-3.651284
O	3.651106	3.651284	-1.322255
Ce	4.972567	4.973534	0.000000
Ce	7.458854	2.486770	-2.486764
Eu	3.729428	3.730147	-3.730152
Eu	11.188270	3.730147	-1.243387
Eu	6.215705	6.216921	-3.730152
Eu	8.701993	6.216921	-1.243387
O	8.780313	3.809015	-1.164519
O	3.807748	6.138053	-3.809019
O	6.137385	3.809015	-3.809019
O	6.294026	6.295789	-1.322255
O	11.109950	6.138053	-1.164519
O	6.294026	8.624817	-3.651284
O	8.623673	6.295789	-3.651284
O	8.623673	8.624817	-1.322255
Ce	-4.972567	0.000000	-4.973534
Ce	-2.486279	-2.486764	-7.460298
Eu	-6.215706	-1.243387	-8.703685
Eu	1.243137	-1.243387	-6.216921
Eu	-3.729428	1.243387	-8.703685
Eu	-1.243141	1.243387	-6.216921
O	-1.164820	-1.164519	-6.138053
O	-6.137385	1.164519	-8.782553
O	-3.807748	-1.164519	-8.782553
O	-3.651108	1.322255	-6.295789
O	1.164817	1.164519	-6.138053
O	-3.651108	3.651284	-8.624817
O	-1.321461	1.322255	-8.624817
O	-1.321461	3.651284	-6.295789
Ce	0.000000	4.973534	-4.973534
Ce	2.486287	2.486770	-7.460298
Eu	-1.243139	3.730147	-8.703685
Eu	6.215704	3.730147	-6.216921
Eu	1.243139	6.216921	-8.703685
Eu	3.729426	6.216921	-6.216921
O	3.807747	3.809015	-6.138053
O	-1.164818	6.138053	-8.782553
O	1.164818	3.809015	-8.782553
O	1.321459	6.295789	-6.295789
O	6.137383	6.138053	-6.138053
O	1.321459	8.624817	-8.624817
O	3.651106	6.295789	-8.624817
O	3.651106	8.624817	-6.295789
Ce	4.972567	-4.973534	0.000000
Ce	7.458854	-7.460298	-2.486764
Eu	3.729428	-6.216921	-3.730152
Eu	11.188270	-6.216921	-1.243387
Eu	6.215705	-3.730147	-3.730152
Eu	8.701993	-3.730147	-1.243387
O	8.780313	-6.138053	-1.164519
O	3.807748	-3.809015	-3.809019
O	6.137385	-6.138053	-3.809019
O	6.294026	-3.651279	-1.322255
O	11.109950	-3.809015	-1.164519
O	6.294026	-1.322250	-3.651284
O	8.623673	-3.651279	-3.651284
O	8.623673	-1.322250	-1.322255
Ce	9.945133	0.000000	0.000000
Ce	12.431421	-2.486764	-2.486764
Eu	8.701995	-1.243387	-3.730152
Eu	16.160837	-1.243387	-1.243387
Eu	11.188272	1.243387	-3.730152
Eu	13.674560	1.243387	-1.243387
O	13.752880	-1.164519	-1.164519
O	8.780315	1.164519	-3.809019
O	11.109952	-1.164519	-3.809019
O	11.266593	1.322255	-1.322255
O	16.082517	1.164519	-1.164519
O	11.266593	3.651284	-3.651284
O	13.596239	1.322255	-3.651284
O	13.596239	3.651284	-1.322255
Ce	0.000000	-4.973534	-4.973534
Ce	2.486287	-7.460298	-7.460298
Eu	-1.243139	-6.216921	-8.703685
Eu	6.215704	-6.216921	-6.216921
Eu	1.243139	-3.730147	-8.703685
Eu	3.729426	-3.730147	-6.216921
O	3.807747	-6.138053	-6.138053
O	-1.164818	-3.809015	-8.782553
O	1.164818	-6.138053	-8.782553
O	1.321459	-3.651279	-6.295789
O	6.137383	-3.809015	-6.138053
O	1.321459	-1.322250	-8.624817
O	3.651106	-3.651279	-8.624817
O	3.651106	-1.322250	-6.295789
Ce	4.972567	0.000000	-4.973534
Ce	7.458854	-2.486764	-7.460298
Eu	3.729428	-1.243387	-8.703685
Eu	11.188270	-1.243387	-6.216921
Eu	6.215705	1.243387	-8.703685
Eu	8.701993	1.243387	-6.216921
O	8.780313	-1.164519	-6.138053
O	3.807748	1.164519	-8.782553
O	6.137385	-1.164519	-8.782553
O	6.294026	1.322255	-6.295789
O	11.109950	1.164519	-6.138053
O	6.294026	3.651284	-8.624817
O	8.623673	1.322255	-8.624817
O	8.623673	3.651284	-6.295789
