176

O	-1.365644	1.723806	4.096922
O	1.007472	4.096922	4.096922
O	4.096922	4.096922	1.007472
O	3.738760	1.365644	1.365644
O	1.365644	1.365644	3.738760
O	1.365644	-1.007472	1.365644
O	-1.365644	-1.365644	4.096922
O	6.828210	1.365644	1.365644
O	4.096922	-1.365644	1.723806
O	4.096922	1.007472	4.096922
O	1.723806	-1.365644	4.096922
O	4.455094	-4.096922	1.365644
O	6.828210	-1.723806	1.365644
O	1.365644	-4.096922	4.455094
Pr	-2.731288	0.000000	2.731288
Pr	5.462566	-0.000000	0.000000
Pr	2.731288	-2.731288	0.000000
Pr	0.000000	-2.731288	2.731288
Te	0.000000	0.000000	0.000000
Te	2.731288	2.731288	0.000000
Te	-0.000000	2.731288	2.731288
Te	2.731288	-0.000000	2.731288
O	4.096925	-3.738763	4.096922
O	6.470040	-1.365647	4.096922
O	9.559490	-1.365647	1.007472
O	9.201328	-4.096925	1.365644
O	6.828213	-4.096925	3.738760
O	6.828213	-6.470040	1.365644
O	4.096925	-6.828213	4.096922
O	12.290778	-4.096925	1.365644
O	9.559490	-6.828213	1.723806
O	9.559490	-4.455097	4.096922
O	7.186375	-6.828213	4.096922
O	9.917662	-9.559490	1.365644
O	12.290778	-7.186374	1.365644
O	6.828213	-9.559490	4.455094
Pr	2.731281	-5.462569	2.731288
Pr	10.925134	-5.462569	0.000000
Pr	8.193856	-8.193856	0.000000
Pr	5.462569	-8.193856	2.731288
Te	5.462569	-5.462569	0.000000
Te	8.193856	-2.731281	0.000000
Te	5.462569	-2.731281	2.731288
Te	8.193856	-5.462569	2.731288
O	-6.828213	1.723806	9.559490
O	-4.455097	4.096922	9.559490
O	-1.365647	4.096922	6.470040
O	-1.723809	1.365644	6.828213
O	-4.096925	1.365644	9.201328
O	-4.096925	-1.007472	6.828213
O	-6.828213	-1.365644	9.559490
O	1.365641	1.365644	6.828213
O	-1.365647	-1.365644	7.186375
O	-1.365647	1.007472	9.559490
O	-3.738763	-1.365644	9.559490
O	-1.007475	-4.096922	6.828213
O	1.365641	-1.723806	6.828213
O	-4.096925	-4.096922	9.917662
Pr	-8.193856	0.000000	8.193856
Pr	-0.000003	-0.000000	5.462569
Pr	-2.731281	-2.731288	5.462569
Pr	-5.462569	-2.731288	8.193856
Te	-5.462569	0.000000	5.462569
Te	-2.731281	2.731288	5.462569
Te	-5.462569	2.731288	8.193856
Te	-2.731281	-0.000000	8.193856
O	-1.365644	-3.738763	9.559490
O	1.007472	-1.365647	9.559490
O	4.096922	-1.365647	6.470040
O	3.738760	-4.096925	6.828213
O	1.365644	-4.096925	9.201328
O	1.365644	-6.470040	6.828213
O	-1.365644	-6.828213	9.559490
O	6.828210	-4.096925	6.828213
O	4.096922	-6.828213	7.186375
O	4.096922	-4.455097	9.559490
O	1.723806	-6.828213	9.559490
O	4.455094	-9.559490	6.828213
O	6.828210	-7.186374	6.828213
O	1.365644	-9.559490	9.917662
Pr	-2.731288	-5.462569	8.193856
Pr	5.462566	-5.462569	5.462569
Pr	2.731288	-8.193856	5.462569
Pr	0.000000	-8.193856	8.193856
Te	0.000000	-5.462569	5.462569
Te	2.731288	-2.731281	5.462569
Te	0.000000	-2.731281	8.193856
Te	2.731288	-5.462569	8.193856
O	4.096925	7.186375	4.096922
O	6.470040	9.559490	4.096922
O	9.559490	9.559490	1.007472
O	9.201328	6.828213	1.365644
O	6.828213	6.828213	3.738760
O	6.828213	4.455097	1.365644
O	4.096925	4.096925	4.096922
O	12.290778	6.828213	1.365644
O	9.559490	4.096925	1.723806
O	9.559490	6.470040	4.096922
O	7.186375	4.096925	4.096922
O	9.917662	1.365647	1.365644
O	12.290778	3.738763	1.365644
O	6.828213	1.365647	4.455094
Pr	2.731281	5.462569	2.731288
Pr	10.925134	5.462569	0.000000
Pr	8.193856	2.731281	0.000000
Pr	5.462569	2.731281	2.731288
Te	5.462569	5.462569	0.000000
Te	8.193856	8.193856	0.000000
Te	5.462569	8.193856	2.731288
Te	8.193856	5.462569	2.731288
O	9.559493	1.723806	4.096922
O	11.932609	4.096922	4.096922
O	15.022059	4.096922	1.007472
O	14.663897	1.365644	1.365644
O	12.290781	1.365644	3.738760
O	12.290781	-1.007472	1.365644
O	9.559493	-1.365644	4.096922
O	17.753347	1.365644	1.365644
O	15.022059	-1.365644	1.723806
O	15.022059	1.007472	4.096922
O	12.648943	-1.365644	4.096922
O	15.380231	-4.096922	1.365644
O	17.753347	-1.723806	1.365644
O	12.290781	-4.096922	4.455094
Pr	8.193849	0.000000	2.731288
Pr	16.387703	0.000000	0.000000
Pr	13.656425	-2.731288	0.000000
Pr	10.925137	-2.731288	2.731288
Te	10.925137	0.000000	0.000000
Te	13.656425	2.731288	0.000000
Te	10.925137	2.731288	2.731288
Te	13.656425	0.000000	2.731288
O	-1.365644	7.186375	9.559490
O	1.007472	9.559490	9.559490
O	4.096922	9.559490	6.470040
O	3.738760	6.828213	6.828213
O	1.365644	6.828213	9.201328
O	1.365644	4.455097	6.828213
O	-1.365644	4.096925	9.559490
O	6.828210	6.828213	6.828213
O	4.096922	4.096925	7.186375
O	4.096922	6.470040	9.559490
O	1.723806	4.096925	9.559490
O	4.455094	1.365647	6.828213
O	6.828210	3.738763	6.828213
O	1.365644	1.365647	9.917662
Pr	-2.731288	5.462569	8.193856
Pr	5.462566	5.462569	5.462569
Pr	2.731288	2.731281	5.462569
Pr	0.000000	2.731281	8.193856
Te	0.000000	5.462569	5.462569
Te	2.731288	8.193856	5.462569
Te	0.000000	8.193856	8.193856
Te	2.731288	5.462569	8.193856
O	4.096925	1.723806	9.559490
O	6.470040	4.096922	9.559490
O	9.559490	4.096922	6.470040
O	9.201328	1.365644	6.828213
O	6.828213	1.365644	9.201328
O	6.828213	-1.007472	6.828213
O	4.096925	-1.365644	9.559490
O	12.290778	1.365644	6.828213
O	9.559490	-1.365644	7.186375
O	9.559490	1.007472	9.559490
O	7.186375	-1.365644	9.559490
O	9.917662	-4.096922	6.828213
O	12.290778	-1.723806	6.828213
O	6.828213	-4.096922	9.917662
Pr	2.731281	0.000000	8.193856
Pr	10.925134	0.000000	5.462569
Pr	8.193856	-2.731288	5.462569
Pr	5.462569	-2.731288	8.193856
Te	5.462569	0.000000	5.462569
Te	8.193856	2.731288	5.462569
Te	5.462569	2.731288	8.193856
Te	8.193856	0.000000	8.193856
