40

Cu	1.905744	1.905744	1.905744
O	1.905744	1.905744	0.000000
O	1.905744	0.000000	1.905744
O	0.000000	1.905744	1.905744
Pu	0.000000	0.000000	0.000000
Cu	1.905744	1.905744	5.717226
O	1.905744	1.905744	3.811482
O	1.905744	0.000000	5.717226
O	0.000000	1.905744	5.717226
Pu	0.000000	0.000000	3.811482
Cu	1.905744	5.717226	1.905744
O	1.905744	5.717226	0.000000
O	1.905744	3.811482	1.905744
O	0.000000	5.717226	1.905744
Pu	0.000000	3.811482	0.000000
Cu	1.905744	5.717226	5.717226
O	1.905744	5.717226	3.811482
O	1.905744	3.811482	5.717226
O	0.000000	5.717226	5.717226
Pu	0.000000	3.811482	3.811482
Cu	5.717226	1.905744	1.905744
O	5.717226	1.905744	0.000000
O	5.717226	0.000000	1.905744
O	3.811482	1.905744	1.905744
Pu	3.811482	0.000000	0.000000
Cu	5.717226	1.905744	5.717226
O	5.717226	1.905744	3.811482
O	5.717226	0.000000	5.717226
O	3.811482	1.905744	5.717226
Pu	3.811482	0.000000	3.811482
Cu	5.717226	5.717226	1.905744
O	5.717226	5.717226	0.000000
O	5.717226	3.811482	1.905744
O	3.811482	5.717226	1.905744
Pu	3.811482	3.811482	0.000000
Cu	5.717226	5.717226	5.717226
O	5.717226	5.717226	3.811482
O	5.717226	3.811482	5.717226
O	3.811482	5.717226	5.717226
Pu	3.811482	3.811482	3.811482
