112

As	0.000000	0.000000	0.000000
As	2.229684	-2.230266	-2.230266
Nb	-1.114842	-1.115133	-3.345400
Nb	1.114842	1.115133	-3.345400
Nb	3.344526	1.115133	-1.115133
Nb	5.574210	-1.115133	-1.115133
O	-1.074223	1.073345	-3.387188
O	3.385145	-1.073345	-1.073345
O	1.074223	-1.073345	-3.387188
O	1.155461	1.156921	-1.156921
O	5.533590	1.073345	-1.073345
O	1.155461	3.303611	-3.303611
O	3.303906	3.303611	-1.156921
O	3.303906	1.156921	-3.303611
As	4.459368	4.460536	0.000000
As	6.689052	2.230270	-2.230266
Nb	3.344526	3.345403	-3.345400
Nb	5.574210	5.575670	-3.345400
Nb	7.803894	5.575670	-1.115133
Nb	10.033577	3.345403	-1.115133
O	3.385145	5.533881	-3.387188
O	7.844513	3.387191	-1.073345
O	5.533590	3.387191	-3.387188
O	5.614829	5.617458	-1.156921
O	9.992958	5.533881	-1.073345
O	5.614829	7.764148	-3.303611
O	7.763274	7.764148	-1.156921
O	7.763274	5.617458	-3.303611
As	-4.459368	0.000000	-4.460536
As	-2.229684	-2.230266	-6.690803
Nb	-5.574210	-1.115133	-7.805936
Nb	-3.344526	1.115133	-7.805936
Nb	-1.114842	1.115133	-5.575670
Nb	1.114842	-1.115133	-5.575670
O	-5.533590	1.073345	-7.847724
O	-1.074223	-1.073345	-5.533881
O	-3.385145	-1.073345	-7.847724
O	-3.303906	1.156921	-5.617458
O	1.074222	1.073345	-5.533881
O	-3.303906	3.303611	-7.764148
O	-1.155461	3.303611	-5.617458
O	-1.155461	1.156921	-7.764148
As	0.000000	4.460536	-4.460536
As	2.229684	2.230270	-6.690803
Nb	-1.114842	3.345403	-7.805936
Nb	1.114842	5.575670	-7.805936
Nb	3.344526	5.575670	-5.575670
Nb	5.574210	3.345403	-5.575670
O	-1.074223	5.533881	-7.847724
O	3.385145	3.387191	-5.533881
O	1.074223	3.387191	-7.847724
O	1.155461	5.617458	-5.617458
O	5.533590	5.533881	-5.533881
O	1.155461	7.764148	-7.764148
O	3.303906	7.764148	-5.617458
O	3.303906	5.617458	-7.764148
As	4.459368	-4.460536	0.000000
As	6.689052	-6.690803	-2.230266
Nb	3.344526	-5.575670	-3.345400
Nb	5.574210	-3.345403	-3.345400
Nb	7.803894	-3.345403	-1.115133
Nb	10.033577	-5.575670	-1.115133
O	3.385145	-3.387191	-3.387188
O	7.844513	-5.533881	-1.073345
O	5.533590	-5.533881	-3.387188
O	5.614829	-3.303615	-1.156921
O	9.992958	-3.387191	-1.073345
O	5.614829	-1.156925	-3.303611
O	7.763274	-1.156925	-1.156921
O	7.763274	-3.303615	-3.303611
As	8.918736	0.000000	0.000000
As	11.148419	-2.230266	-2.230266
Nb	7.803894	-1.115133	-3.345400
Nb	10.033577	1.115133	-3.345400
Nb	12.263261	1.115133	-1.115133
Nb	14.492945	-1.115133	-1.115133
O	7.844513	1.073345	-3.387188
O	12.303881	-1.073345	-1.073345
O	9.992958	-1.073345	-3.387188
O	10.074197	1.156921	-1.156921
O	14.452326	1.073345	-1.073345
O	10.074197	3.303611	-3.303611
O	12.222642	3.303611	-1.156921
O	12.222642	1.156921	-3.303611
As	0.000000	-4.460536	-4.460536
As	2.229684	-6.690803	-6.690803
Nb	-1.114842	-5.575670	-7.805936
Nb	1.114842	-3.345403	-7.805936
Nb	3.344526	-3.345403	-5.575670
Nb	5.574210	-5.575670	-5.575670
O	-1.074223	-3.387191	-7.847724
O	3.385145	-5.533881	-5.533881
O	1.074223	-5.533881	-7.847724
O	1.155461	-3.303615	-5.617458
O	5.533590	-3.387191	-5.533881
O	1.155461	-1.156925	-7.764148
O	3.303906	-1.156925	-5.617458
O	3.303906	-3.303615	-7.764148
As	4.459368	0.000000	-4.460536
As	6.689052	-2.230266	-6.690803
Nb	3.344526	-1.115133	-7.805936
Nb	5.574210	1.115133	-7.805936
Nb	7.803894	1.115133	-5.575670
Nb	10.033577	-1.115133	-5.575670
O	3.385145	1.073345	-7.847724
O	7.844513	-1.073345	-5.533881
O	5.533590	-1.073345	-7.847724
O	5.614829	1.156921	-5.617458
O	9.992958	1.073345	-5.533881
O	5.614829	3.303611	-7.764148
O	7.763274	3.303611	-5.617458
O	7.763274	1.156921	-7.764148
